<routes>
   <vType accel="2.6" decel="4.5" id="car" length="5.0" maxSpeed="80" sigma="0.5" />
   <route edges="1200725390#0 1200725390#1 1200725391#1 22850376#0 1200725389#1 -22850107#6 211658612#0 -211658547 -22850107#4 22850107#4" id="route_0_1200725390#0" />
   <vehicle depart="0" id="route_0_1200725390#0_veh0" route="route_0_1200725390#0" type="car" />
   <route edges="1200725390#0 1200725390#1 1200725391#1 22850376#0 22850376#1 1234788292#2 1285590647#0 1285590647#1 1236044643#1" id="route_1_1200725390#0" />
   <vehicle depart="1" id="route_1_1200725390#0_veh1" route="route_1_1200725390#0" type="car" />
   <route edges="1200725390#0 1200725390#1 1200725391#1 22850376#0 22850376#1 1285590647#1 1236044643#1 658655412#0 -993557580 22850285" id="route_2_1200725390#0" />
   <vehicle depart="2" id="route_2_1200725390#0_veh2" route="route_2_1200725390#0" type="car" />
   <route edges="1200725390#0 1200725390#1 1200725391#1 1200725391#2 22850347#0 -211658626#6 211658626#6 22850347#1 658655411#1" id="route_3_1200725390#0" />
   <vehicle depart="3" id="route_3_1200725390#0_veh3" route="route_3_1200725390#0" type="car" />
   <route edges="1200725390#0 1200725390#1 1200725391#1 22850376#0 22850376#1 1285590647#1 1236044643#1 1177154782 1234788292#0" id="route_4_1200725390#0" />
   <vehicle depart="4" id="route_4_1200725390#0_veh4" route="route_4_1200725390#0" type="car" />
   <route edges="1200725390#0 1200725390#1 1200725391#1 22850376#0 1200725389#1 22850107#7 22850107#8 701012911 211658467 658655412#3 658655411#4" id="route_5_1200725390#0" />
   <vehicle depart="5" id="route_5_1200725390#0_veh5" route="route_5_1200725390#0" type="car" />
   <route edges="1200725390#0 1200725390#1 22850489#0 22850489#1 39678318#4 39678318#5 39678318#6 1200725391#1 22850376#0 22850376#1 22850376#3" id="route_6_1200725390#0" />
   <vehicle depart="6" id="route_6_1200725390#0_veh6" route="route_6_1200725390#0" type="car" />
   <route edges="1200725390#0 1200725390#1 1239434258#2 1239434258#3 1236044645 1200725391#1 22850376#0 1200725389#1 22850107#7" id="route_7_1200725390#0" />
   <vehicle depart="7" id="route_7_1200725390#0_veh7" route="route_7_1200725390#0" type="car" />
   <route edges="1200725390#0 1200725390#1 1239434258#2 1239434258#3 1285590647#0 -22850376#1 1200725389#1 22850107#7 22850107#8 22850107#9 1234788292#1" id="route_8_1200725390#0" />
   <vehicle depart="8" id="route_8_1200725390#0_veh8" route="route_8_1200725390#0" type="car" />
   <route edges="1200725390#0 1200725390#1 1239434258#2 1239434258#3 1285590647#0 22850376#3 -22850376#3 1285590647#1 1236044643#1 658655412#0" id="route_9_1200725390#0" />
   <vehicle depart="9" id="route_9_1200725390#0_veh9" route="route_9_1200725390#0" type="car" />
   <route edges="1200725390#0 1200725390#1 1200725391#1 1200725391#2 22850107#1 22850107#2 22850107#3 -22850107#3 -22850107#2 -22850107#1" id="route_10_1200725390#0" />
   <vehicle depart="10" id="route_10_1200725390#0_veh10" route="route_10_1200725390#0" type="car" />
   <route edges="1200725390#0 1200725390#1 1200725391#1 1200725391#2 1200725391#3 1123108621 658655411#0 658655411#1 658655412#5 658655412#6 658655412#7" id="route_11_1200725390#0" />
   <vehicle depart="11" id="route_11_1200725390#0_veh11" route="route_11_1200725390#0" type="car" />
   <route edges="1200725390#0 1200725390#1 1200725391#1 22850376#0 22850376#1 1285590647#1 1234788292#0 -22850107#9 -22850107#8 -22850107#7 22850107#7" id="route_12_1200725390#0" />
   <vehicle depart="12" id="route_12_1200725390#0_veh12" route="route_12_1200725390#0" type="car" />
   <route edges="1200725390#0 1200725390#1 22850489#0 22850489#1 22850489#2 22850489#3" id="route_13_1200725390#0" />
   <vehicle depart="13" id="route_13_1200725390#0_veh13" route="route_13_1200725390#0" type="car" />
   <route edges="1200725390#0 1200725390#1 1200725391#1 22850376#0 22850376#1 22850376#3 -22850376#3 -22850376#1 -22850376#0 1200725391#2" id="route_14_1200725390#0" />
   <vehicle depart="14" id="route_14_1200725390#0_veh14" route="route_14_1200725390#0" type="car" />
   <route edges="1200725390#0 1200725390#1 1200725391#1 1200725391#2 1200725391#3 1249027318 22852231#0" id="route_15_1200725390#0" />
   <vehicle depart="15" id="route_15_1200725390#0_veh15" route="route_15_1200725390#0" type="car" />
   <route edges="1200725390#0 1200725390#1 1239434258#2 1239434258#3 1285590647#0 1285590647#1" id="route_16_1200725390#0" />
   <vehicle depart="16" id="route_16_1200725390#0_veh16" route="route_16_1200725390#0" type="car" />
   <route edges="1200725390#0 1200725390#1 1200725391#1 22850376#0 22850376#1 1285590647#1 1236044643#1 658655412#0 658655412#1 -938741295#1 938741295#1" id="route_17_1200725390#0" />
   <vehicle depart="17" id="route_17_1200725390#0_veh17" route="route_17_1200725390#0" type="car" />
   <route edges="1200725390#0 1200725390#1 1239434258#2 1239434258#3 1236044645 1200725391#1 22850376#0 1200725389#1 -1200725389#1 -22850376#0" id="route_18_1200725390#0" />
   <vehicle depart="18" id="route_18_1200725390#0_veh18" route="route_18_1200725390#0" type="car" />
   <route edges="1200725390#0 1200725390#1 1239434258#2 1239434258#3 1285590647#0 1285590647#1 1234788292#0 1234788292#1 -22850376#1 22850376#1" id="route_19_1200725390#0" />
   <vehicle depart="19" id="route_19_1200725390#0_veh19" route="route_19_1200725390#0" type="car" />
   <route edges="1200725390#0 1200725390#1 1239434258#2 1239434258#3 1285590647#0 -22850376#1 -22850376#0 1200725391#2 1200725391#3 1249027318" id="route_20_1200725390#0" />
   <vehicle depart="20" id="route_20_1200725390#0_veh20" route="route_20_1200725390#0" type="car" />
   <route edges="1200725390#0 1200725390#1 1239434258#2 1239434258#3 1285590647#0 1285590647#1 1236044643#1 1177154782 1285590644#0" id="route_21_1200725390#0" />
   <vehicle depart="21" id="route_21_1200725390#0_veh21" route="route_21_1200725390#0" type="car" />
   <route edges="1200725390#0 1200725390#1 1239434258#2 1239434258#3 1285590647#0 -22850376#1 -22850376#0 1200725391#2 22850107#1 211658451 -211658451" id="route_22_1200725390#0" />
   <vehicle depart="22" id="route_22_1200725390#0_veh22" route="route_22_1200725390#0" type="car" />
   <route edges="1200725390#1 1200725391#1 1200725391#2 22850107#1 22850107#2 211658460 -211658460 22850107#3 -22850107#3" id="route_0_1200725390#1" />
   <vehicle depart="23" id="route_0_1200725390#1_veh23" route="route_0_1200725390#1" type="car" />
   <route edges="1200725390#1 1200725391#1 22850376#0 1200725389#1 22850107#7 22850107#8 -22850107#8 -22850107#7 -22850107#6 -22850107#5" id="route_1_1200725390#1" />
   <vehicle depart="24" id="route_1_1200725390#1_veh24" route="route_1_1200725390#1" type="car" />
   <route edges="1200725390#1 22850489#0 22850489#1 39678318#4 39678318#5 39678318#6 1200725391#1 1200725391#2 1200725391#3 1249027318" id="route_2_1200725390#1" />
   <vehicle depart="25" id="route_2_1200725390#1_veh25" route="route_2_1200725390#1" type="car" />
   <route edges="1200725390#1 1239434258#2 1239434258#3 1285590647#0 1234788292#2 1236044645 1200725391#1 1200725391#2 1200725391#3 1123108621" id="route_3_1200725390#1" />
   <vehicle depart="26" id="route_3_1200725390#1_veh26" route="route_3_1200725390#1" type="car" />
   <route edges="1200725390#1 1200725391#1 22850376#0 22850376#1 1285590647#1 1236044643#1 -1177154781#1 -22850285 993557580 -993557580 -1210675283" id="route_4_1200725390#1" />
   <vehicle depart="27" id="route_4_1200725390#1_veh27" route="route_4_1200725390#1" type="car" />
   <route edges="1200725390#1 1200725391#1 22850376#0 22850376#1 22850376#3 -22850376#3 1285590647#1 1236044643#1 -1177154781#1 -22850285" id="route_5_1200725390#1" />
   <vehicle depart="28" id="route_5_1200725390#1_veh28" route="route_5_1200725390#1" type="car" />
   <route edges="1200725390#1 1200725391#1 22850376#0 1200725389#1 -22850107#6 -22850107#5 211658547 211658612#1 -211658612#1 -211658612#0" id="route_6_1200725390#1" />
   <vehicle depart="29" id="route_6_1200725390#1_veh29" route="route_6_1200725390#1" type="car" />
   <route edges="1200725390#1 1200725391#1 22850376#0 1200725389#1 -22850107#6 -22850107#5 211658547 -211658612#0 211658612#0 211658612#1" id="route_7_1200725390#1" />
   <vehicle depart="30" id="route_7_1200725390#1_veh30" route="route_7_1200725390#1" type="car" />
   <route edges="1200725390#1 1200725391#1 22850376#0 22850376#1 22850376#3 -22850376#3 1234788292#2 1236044645 1239434258#2 1239434258#3 658655414#1" id="route_8_1200725390#1" />
   <vehicle depart="31" id="route_8_1200725390#1_veh31" route="route_8_1200725390#1" type="car" />
   <route edges="1200725390#1 1200725391#1 22850376#0 22850376#1 22850376#3 -22850376#3 1285590647#1 1236044643#1 -1177154781#1 1177154781#1 658655412#0" id="route_9_1200725390#1" />
   <vehicle depart="32" id="route_9_1200725390#1_veh32" route="route_9_1200725390#1" type="car" />
   <route edges="1200725390#1 1200725391#1 22850376#0 1200725389#1 22850107#7 22850107#8 701012911 211658601#2 211658501 -211658501 211658601#3" id="route_10_1200725390#1" />
   <vehicle depart="33" id="route_10_1200725390#1_veh33" route="route_10_1200725390#1" type="car" />
   <route edges="1200725390#1 1200725391#1 22850376#0 1200725389#1 -1200725389#1 -22850376#0 1200725391#2 22850107#1 22850107#2 22850107#3" id="route_11_1200725390#1" />
   <vehicle depart="34" id="route_11_1200725390#1_veh34" route="route_11_1200725390#1" type="car" />
   <route edges="1200725390#1 1200725391#1 22850376#0 -22850376#0 1200725391#2 1200725391#3 1249027318 1200725390#0" id="route_12_1200725390#1" />
   <vehicle depart="35" id="route_12_1200725390#1_veh35" route="route_12_1200725390#1" type="car" />
   <route edges="1200725390#1 1239434258#2 1239434258#3 1285590647#0 1285590647#1 1234788292#0 -22850107#9 -22850107#8 -22850107#7" id="route_13_1200725390#1" />
   <vehicle depart="36" id="route_13_1200725390#1_veh36" route="route_13_1200725390#1" type="car" />
   <route edges="1200725390#1 1200725391#1 22850376#0 22850376#1 1285590647#1 1234788292#0 1234788292#1 22850376#3 -22850376#3 1234788292#2 658655414#1" id="route_14_1200725390#1" />
   <vehicle depart="37" id="route_14_1200725390#1_veh37" route="route_14_1200725390#1" type="car" />
   <route edges="1200725390#1 1200725391#1 1200725391#2 1200725391#3 1123108621 658655411#0 658655411#1 1219443082#1 1219443083 -39220085#5 -39220085#4" id="route_15_1200725390#1" />
   <vehicle depart="38" id="route_15_1200725390#1_veh38" route="route_15_1200725390#1" type="car" />
   <route edges="1200725390#1 1239434258#2 1239434258#3 1285590647#0 22850376#3 -22850376#3 1234788292#2 1236044645 22850489#0" id="route_16_1200725390#1" />
   <vehicle depart="39" id="route_16_1200725390#1_veh39" route="route_16_1200725390#1" type="car" />
   <route edges="1200725390#1 1239434258#2 1239434258#3 1236044645 1200725391#1 22850376#0 1200725389#1 -22850107#6 22850107#6 22850107#7 22850107#8" id="route_17_1200725390#1" />
   <vehicle depart="40" id="route_17_1200725390#1_veh40" route="route_17_1200725390#1" type="car" />
   <route edges="1200725390#1 1239434258#2 1239434258#3 1236044645 1200725391#1 22850376#0 1200725389#1 22850107#7 22850107#8 701012911 -701012911" id="route_18_1200725390#1" />
   <vehicle depart="41" id="route_18_1200725390#1_veh41" route="route_18_1200725390#1" type="car" />
   <route edges="1200725390#1 1239434258#2 1239434258#3 1236044645 1200725391#1 22850376#0 1200725389#1 -22850107#6 22850107#6" id="route_19_1200725390#1" />
   <vehicle depart="42" id="route_19_1200725390#1_veh42" route="route_19_1200725390#1" type="car" />
   <route edges="1200725390#1 1200725391#1 22850376#0 22850376#1 1234788292#2 1285590647#0 1285590647#1 1236044643#1 1177154782 1285590644#0" id="route_20_1200725390#1" />
   <vehicle depart="43" id="route_20_1200725390#1_veh43" route="route_20_1200725390#1" type="car" />
   <route edges="1200725390#1 1200725391#1 22850376#0 22850376#1 1285590647#1 1234788292#0 -22850107#9 701012911 211658467 658655411#6 658655411#7" id="route_21_1200725390#1" />
   <vehicle depart="44" id="route_21_1200725390#1_veh44" route="route_21_1200725390#1" type="car" />
   <route edges="1200725390#1 1200725391#1 22850376#0 22850376#1 1234788292#2 1285590647#0 1285590647#1 1234788292#0 -22850107#9" id="route_22_1200725390#1" />
   <vehicle depart="45" id="route_22_1200725390#1_veh45" route="route_22_1200725390#1" type="car" />
   <route edges="1200725391#1 22850376#0 22850376#1 1285590647#1 1234788292#0 -22850107#9 701012911 211658467 701012912#1 211658601#2 211658601#3" id="route_0_1200725391#1" />
   <vehicle depart="46" id="route_0_1200725391#1_veh46" route="route_0_1200725391#1" type="car" />
   <route edges="1200725391#1 22850376#0 1200725389#1 -1200725389#1 22850376#1 22850376#3 -22850376#3 1285590647#1 1236044643#1 -1177154781#1 -22850285" id="route_1_1200725391#1" />
   <vehicle depart="47" id="route_1_1200725391#1_veh47" route="route_1_1200725391#1" type="car" />
   <route edges="1200725391#1 1200725391#2 22850347#0 22850347#1 658655411#1 1219443082#1 -1219443082#1 658655411#2 658655411#3 -22850196#2" id="route_2_1200725391#1" />
   <vehicle depart="48" id="route_2_1200725391#1_veh48" route="route_2_1200725391#1" type="car" />
   <route edges="1200725391#1 22850376#0 1200725389#1 -22850107#6 211658612#0 211658612#1 211658626#0 -211658626#0 -211658612#1 -211658547 22850107#5" id="route_3_1200725391#1" />
   <vehicle depart="49" id="route_3_1200725391#1_veh49" route="route_3_1200725391#1" type="car" />
   <route edges="1200725391#1 1200725391#2 22850107#1 22850107#2 211658460 -211658460 -22850107#2 -22850107#1 22850347#0 22850347#1" id="route_4_1200725391#1" />
   <vehicle depart="50" id="route_4_1200725391#1_veh50" route="route_4_1200725391#1" type="car" />
   <route edges="1200725391#1 1200725391#2 22850107#1 -22850107#1 1200725391#3 1123108621 658655411#0 658655411#1 658655411#2 658655411#3 658655411#4" id="route_5_1200725391#1" />
   <vehicle depart="51" id="route_5_1200725391#1_veh51" route="route_5_1200725391#1" type="car" />
   <route edges="1200725391#1 22850376#0 22850376#1 -22850376#1 1200725389#1 -22850107#6 211658612#0 211658612#1 -211658612#1 -211658612#0 -22850107#5" id="route_6_1200725391#1" />
   <vehicle depart="52" id="route_6_1200725391#1_veh52" route="route_6_1200725391#1" type="car" />
   <route edges="1200725391#1 22850376#0 1200725389#1 -22850107#6 211658612#0 -211658612#0 -22850107#5" id="route_7_1200725391#1" />
   <vehicle depart="53" id="route_7_1200725391#1_veh53" route="route_7_1200725391#1" type="car" />
   <route edges="1200725391#1 1200725391#2 22850107#1 22850107#2 22850107#3 22850107#4 22850107#5 22850107#6 -1200725389#1 1200725389#1" id="route_8_1200725391#1" />
   <vehicle depart="54" id="route_8_1200725391#1_veh54" route="route_8_1200725391#1" type="car" />
   <route edges="1200725391#1 22850376#0 1200725389#1 22850107#7 22850107#8 701012911 -211658601#1 211658503 -211658503 211658601#1 -701012911" id="route_9_1200725391#1" />
   <vehicle depart="55" id="route_9_1200725391#1_veh55" route="route_9_1200725391#1" type="car" />
   <route edges="1200725391#1 22850376#0 -22850376#0 1200725391#2 22850107#1 -22850107#1 1200725391#3 1249027318 22852231#0" id="route_10_1200725391#1" />
   <vehicle depart="56" id="route_10_1200725391#1_veh56" route="route_10_1200725391#1" type="car" />
   <route edges="1200725391#1 22850376#0 1200725389#1 -22850107#6 -22850107#5 211658547 -211658612#0 211658612#0 211658612#1 211658626#0 -211658626#0" id="route_11_1200725391#1" />
   <vehicle depart="57" id="route_11_1200725391#1_veh57" route="route_11_1200725391#1" type="car" />
   <route edges="1200725391#1 22850376#0 22850376#1 1234788292#2 1285590647#0 22850376#3 -22850376#3 1285590647#1 1234788292#0" id="route_12_1200725391#1" />
   <vehicle depart="58" id="route_12_1200725391#1_veh58" route="route_12_1200725391#1" type="car" />
   <route edges="1200725391#1 1200725391#2 1200725391#3 1123108621 658655411#0 658655411#1 658655411#2 658655411#3 -22850196#2 -22850196#1 -39220085#2" id="route_13_1200725391#1" />
   <vehicle depart="59" id="route_13_1200725391#1_veh59" route="route_13_1200725391#1" type="car" />
   <route edges="1200725391#1 22850376#0 1200725389#1 22850107#7 22850107#8 701012911 211658601#2 211658501 -211658501" id="route_14_1200725391#1" />
   <vehicle depart="60" id="route_14_1200725391#1_veh60" route="route_14_1200725391#1" type="car" />
   <route edges="1200725391#1 1200725391#2 22850107#1 22850107#2 22850107#3 22850107#4 211658547 -211658547 22850107#5 211658612#0 -211658612#0" id="route_15_1200725391#1" />
   <vehicle depart="61" id="route_15_1200725391#1_veh61" route="route_15_1200725391#1" type="car" />
   <route edges="1200725391#1 22850376#0 22850376#1 1285590647#1 1236044643#1 1177154782 1234788292#0 1234788292#1 1234788292#2 1285590647#0" id="route_16_1200725391#1" />
   <vehicle depart="62" id="route_16_1200725391#1_veh62" route="route_16_1200725391#1" type="car" />
   <route edges="1200725391#1 22850376#0 22850376#1 1285590647#1 1234788292#0 -22850107#9 22850107#9 1234788292#1 -22850376#1" id="route_17_1200725391#1" />
   <vehicle depart="63" id="route_17_1200725391#1_veh63" route="route_17_1200725391#1" type="car" />
   <route edges="1200725391#1 22850376#0 1200725389#1 -1200725389#1 22850376#1 22850376#3 -22850376#3 1285590647#1 1236044643#1 -1177154781#1 1177154781#1" id="route_18_1200725391#1" />
   <vehicle depart="64" id="route_18_1200725391#1_veh64" route="route_18_1200725391#1" type="car" />
   <route edges="1200725391#1 22850376#0 22850376#1 -22850376#1 -22850376#0 1200725391#2 22850107#1 211658451 -211658451 22850107#2 22850107#3" id="route_19_1200725391#1" />
   <vehicle depart="65" id="route_19_1200725391#1_veh65" route="route_19_1200725391#1" type="car" />
   <route edges="1200725391#1 22850376#0 22850376#1 1234788292#2 1285590647#0 -22850376#1 -22850376#0 1200725391#2 1200725391#3 1123108621" id="route_20_1200725391#1" />
   <vehicle depart="66" id="route_20_1200725391#1_veh66" route="route_20_1200725391#1" type="car" />
   <route edges="1200725391#1 22850376#0 22850376#1 22850376#3 -22850376#3 -22850376#1 1200725389#1 -1200725389#1 -22850376#0 1200725391#2 22850107#1" id="route_21_1200725391#1" />
   <vehicle depart="67" id="route_21_1200725391#1_veh67" route="route_21_1200725391#1" type="car" />
   <route edges="1200725391#1 22850376#0 22850376#1 -22850376#1 1200725389#1 -22850107#6 211658612#0 -211658547 -22850107#4 -22850107#3" id="route_22_1200725391#1" />
   <vehicle depart="68" id="route_22_1200725391#1_veh68" route="route_22_1200725391#1" type="car" />
   <route edges="1200725391#2 22850347#0 22850347#1 658655411#1 1219443082#1 -1219443082#1 658655411#2 658655411#3 -22850196#2 22850088#2 22850088#3" id="route_0_1200725391#2" />
   <vehicle depart="69" id="route_0_1200725391#2_veh69" route="route_0_1200725391#2" type="car" />
   <route edges="1200725391#2 22850107#1 22850107#2 211658460 -211658460 -22850107#2 -22850107#1 22850347#0 -211658626#6 -211658626#5 211658626#5" id="route_1_1200725391#2" />
   <vehicle depart="70" id="route_1_1200725391#2_veh70" route="route_1_1200725391#2" type="car" />
   <route edges="1200725391#2 22850107#1 -22850107#1 1200725391#3 1123108621 658655411#0 658655411#1 658655411#2 658655411#3 -22850196#2 -22850196#1" id="route_2_1200725391#2" />
   <vehicle depart="71" id="route_2_1200725391#2_veh71" route="route_2_1200725391#2" type="car" />
   <route edges="1200725391#2 22850347#0 22850347#1 658655412#7 658655412#8 1201591783 1200725390#0 1200725390#1 1239434258#2" id="route_3_1200725391#2" />
   <vehicle depart="72" id="route_3_1200725391#2_veh72" route="route_3_1200725391#2" type="car" />
   <route edges="1200725391#2 22850347#0 22850347#1 658655411#1 658655411#2 658655411#3 -22850196#2 -22850196#1 22850196#1 22850088#2 -22850088#2" id="route_4_1200725391#2" />
   <vehicle depart="73" id="route_4_1200725391#2_veh73" route="route_4_1200725391#2" type="car" />
   <route edges="1200725391#2 1200725391#3 1123108621 658655411#0 658655411#1 1219443082#1 1219443083 -1219443083 -1219443082#1 658655411#2 658655411#3" id="route_5_1200725391#2" />
   <vehicle depart="74" id="route_5_1200725391#2_veh74" route="route_5_1200725391#2" type="car" />
   <route edges="1200725391#2 1200725391#3 1123108621 658655411#0 658655411#1 658655411#2 658655411#3 658655411#4 658655411#5 701012912#1 211658601#2" id="route_6_1200725391#2" />
   <vehicle depart="75" id="route_6_1200725391#2_veh75" route="route_6_1200725391#2" type="car" />
   <route edges="1200725391#2 22850347#0 -211658626#6 211658469 -211658469 211658626#6 22850347#1 658655411#1 658655412#5" id="route_7_1200725391#2" />
   <vehicle depart="76" id="route_7_1200725391#2_veh76" route="route_7_1200725391#2" type="car" />
   <route edges="1200725391#2 22850107#1 -22850107#1 1200725391#3 1249027318 1249027317 658655411#0 658655411#1 1219443082#1 1177156540" id="route_8_1200725391#2" />
   <vehicle depart="77" id="route_8_1200725391#2_veh77" route="route_8_1200725391#2" type="car" />
   <route edges="1200725391#2 22850107#1 22850107#2 22850107#3 -22850107#3 -22850107#2 -22850107#1 22850347#0 22850347#1 658655411#1 1219443082#1" id="route_9_1200725391#2" />
   <vehicle depart="78" id="route_9_1200725391#2_veh78" route="route_9_1200725391#2" type="car" />
   <route edges="1200725391#2 22850347#0 -211658626#6 -211658626#5 -211658626#4 211658626#4 211658449 -211658449 211658626#5" id="route_10_1200725391#2" />
   <vehicle depart="79" id="route_10_1200725391#2_veh79" route="route_10_1200725391#2" type="car" />
   <route edges="1200725391#2 22850347#0 22850347#1 658655411#1 1219443082#1 1219443083 1219443084 -1219443084 -1219443083 1177156540 22850088#0" id="route_11_1200725391#2" />
   <vehicle depart="80" id="route_11_1200725391#2_veh80" route="route_11_1200725391#2" type="car" />
   <route edges="1200725391#2 22850347#0 22850347#1 658655411#1 1219443082#1 1219443083 22850313#0 22850194#0 -22850187#1 22850187#1 -22850194#0" id="route_12_1200725391#2" />
   <vehicle depart="81" id="route_12_1200725391#2_veh81" route="route_12_1200725391#2" type="car" />
   <route edges="1200725391#2 22850347#0 -211658626#6 -211658626#5 -211658626#4 211658626#4 211658626#5 211658626#6" id="route_13_1200725391#2" />
   <vehicle depart="82" id="route_13_1200725391#2_veh82" route="route_13_1200725391#2" type="car" />
   <route edges="1200725391#2 22850347#0 -211658626#6 -211658626#5 -211658626#4 -211658626#3 211658481 -211658481 -211658626#2 -211658626#1" id="route_14_1200725391#2" />
   <vehicle depart="83" id="route_14_1200725391#2_veh83" route="route_14_1200725391#2" type="car" />
   <route edges="1200725391#2 22850347#0 -211658626#6 211658626#6 22850347#1 658655411#1 658655411#2 -211658612#3 211658612#3 658655411#3" id="route_15_1200725391#2" />
   <vehicle depart="84" id="route_15_1200725391#2_veh84" route="route_15_1200725391#2" type="car" />
   <route edges="1200725391#2 22850347#0 22850347#1 658655412#7 658655412#8 1201591783 22852231#0 22852231#1 -1149808813 1149808813" id="route_16_1200725391#2" />
   <vehicle depart="85" id="route_16_1200725391#2_veh85" route="route_16_1200725391#2" type="car" />
   <route edges="1200725391#2 22850107#1 211658451 -211658451 22850107#2 22850107#3 -22850107#3 -22850107#2 -22850107#1" id="route_17_1200725391#2" />
   <vehicle depart="86" id="route_17_1200725391#2_veh86" route="route_17_1200725391#2" type="car" />
   <route edges="1200725391#2 22850347#0 -211658626#6 211658469 -211658469 211658626#6 22850347#1 658655412#7 658655412#8 1201591783 22852231#0" id="route_18_1200725391#2" />
   <vehicle depart="87" id="route_18_1200725391#2_veh87" route="route_18_1200725391#2" type="car" />
   <route edges="1200725391#2 22850107#1 211658451 -211658451 22850107#2 22850107#3 -22850107#3 211658460" id="route_19_1200725391#2" />
   <vehicle depart="88" id="route_19_1200725391#2_veh88" route="route_19_1200725391#2" type="car" />
   <route edges="1200725391#2 22850107#1 -22850107#1 1200725391#3 1123108621 658655411#0 658655411#1 1219443082#1 -1219443082#1 658655412#5 658655412#6" id="route_20_1200725391#2" />
   <vehicle depart="89" id="route_20_1200725391#2_veh89" route="route_20_1200725391#2" type="car" />
   <route edges="1200725391#2 22850107#1 22850107#2 22850107#3 22850107#4 211658547 211658612#1 211658626#0 211658626#1 211658626#2" id="route_21_1200725391#2" />
   <vehicle depart="90" id="route_21_1200725391#2_veh90" route="route_21_1200725391#2" type="car" />
   <route edges="1200725391#2 22850107#1 -22850107#1 22850347#0 -211658626#6 -211658626#5 211658626#5" id="route_22_1200725391#2" />
   <vehicle depart="91" id="route_22_1200725391#2_veh91" route="route_22_1200725391#2" type="car" />
   <route edges="1200725391#3 1123108621 658655411#0 658655411#1 1219443082#1 -1219443082#1 658655411#2 -211658612#3 211658612#3 658655411#3 658655411#4" id="route_0_1200725391#3" />
   <vehicle depart="92" id="route_0_1200725391#3_veh92" route="route_0_1200725391#3" type="car" />
   <route edges="1200725391#3 1123108621 658655411#0 658655411#1 658655411#2 658655411#3 658655411#4 658655411#5 658655412#3 -22850196#2" id="route_1_1200725391#3" />
   <vehicle depart="93" id="route_1_1200725391#3_veh93" route="route_1_1200725391#3" type="car" />
   <route edges="1200725391#3 1249027318 1249027317 658655411#0 658655411#1 1219443082#1 -1219443082#1 658655411#2 658655411#3 -22850196#2 22850088#2" id="route_2_1200725391#3" />
   <vehicle depart="94" id="route_2_1200725391#3_veh94" route="route_2_1200725391#3" type="car" />
   <route edges="1200725391#3 1249027318 1249027317 658655411#0 658655412#7 658655412#8 1201591783 1237761233#1 -1237761233#1 1245531541" id="route_3_1200725391#3" />
   <vehicle depart="95" id="route_3_1200725391#3_veh95" route="route_3_1200725391#3" type="car" />
   <route edges="1200725391#3 1123108621 658655411#0 658655411#1 658655411#2 -211658612#3 211658626#0 211658626#1 211658626#2 211658626#3" id="route_4_1200725391#3" />
   <vehicle depart="96" id="route_4_1200725391#3_veh96" route="route_4_1200725391#3" type="car" />
   <route edges="1200725391#3 1123108621 658655411#0 658655411#1 1219443082#1 1177156540 22850088#0 993557579 -39220085#3 22850196#1 22850088#2" id="route_5_1200725391#3" />
   <vehicle depart="97" id="route_5_1200725391#3_veh97" route="route_5_1200725391#3" type="car" />
   <route edges="1200725391#3 1123108621 658655411#0 658655411#1 658655411#2 658655411#3 658655412#4 1219443082#1 -1219443082#1 658655412#5" id="route_6_1200725391#3" />
   <vehicle depart="98" id="route_6_1200725391#3_veh98" route="route_6_1200725391#3" type="car" />
   <route edges="1200725391#3 1123108621 658655411#0 658655412#7 658655412#8 1201591783 1237761233#1 1133675674#0 1133675674#1 1133675674#2" id="route_7_1200725391#3" />
   <vehicle depart="99" id="route_7_1200725391#3_veh99" route="route_7_1200725391#3" type="car" />
   <route edges="1200725391#3 1123108621 658655411#0 658655411#1 658655411#2 -211658612#3 -211658612#1 -211658612#0 -22850107#5 22850107#5 22850107#6" id="route_8_1200725391#3" />
   <vehicle depart="100" id="route_8_1200725391#3_veh100" route="route_8_1200725391#3" type="car" />
   <route edges="1200725391#3 1249027318 1249027317 658655411#0 658655411#1 658655411#2 658655411#3 -22850196#2 22850088#2 -938741295#0 -39220085#1" id="route_9_1200725391#3" />
   <vehicle depart="101" id="route_9_1200725391#3_veh101" route="route_9_1200725391#3" type="car" />
   <route edges="1200725391#3 1249027318 1237761233#1 -1237761233#1 1200725390#0 1200725390#1 22850489#0 22850489#1 39678318#4 39678318#5 39678318#6" id="route_10_1200725391#3" />
   <vehicle depart="102" id="route_10_1200725391#3_veh102" route="route_10_1200725391#3" type="car" />
   <route edges="1200725391#3 1123108621 658655411#0 658655412#7 658655412#8 1201591783 1200725390#0 1200725390#1 22850489#0" id="route_11_1200725391#3" />
   <vehicle depart="103" id="route_11_1200725391#3_veh103" route="route_11_1200725391#3" type="car" />
   <route edges="1200725391#3 1249027318 1249027317 658655411#0 658655411#1 1219443082#1 1219443083 1219443084 -1219443084 22850313#0" id="route_12_1200725391#3" />
   <vehicle depart="104" id="route_12_1200725391#3_veh104" route="route_12_1200725391#3" type="car" />
   <route edges="1200725391#3 1249027318 1249027317 658655411#0 658655411#1 658655411#2 658655411#3 658655412#4 1219443082#1 1219443083 22850313#0" id="route_13_1200725391#3" />
   <vehicle depart="105" id="route_13_1200725391#3_veh105" route="route_13_1200725391#3" type="car" />
   <route edges="1200725391#3 1123108621 658655411#0 658655411#1 658655411#2 -211658612#3 211658626#0 211658626#1 211658626#2 211658481 -211658481" id="route_14_1200725391#3" />
   <vehicle depart="106" id="route_14_1200725391#3_veh106" route="route_14_1200725391#3" type="car" />
   <route edges="1200725391#3 1123108621 658655411#0 658655411#1 1219443082#1 1177156540 22850088#0 -22850088#0 -1177156540 -1219443082#1" id="route_15_1200725391#3" />
   <vehicle depart="107" id="route_15_1200725391#3_veh107" route="route_15_1200725391#3" type="car" />
   <route edges="1200725391#3 1123108621 658655411#0 658655411#1 658655411#2 658655411#3 -22850196#2 -22850196#1 -39220085#2 938741295#0" id="route_16_1200725391#3" />
   <vehicle depart="108" id="route_16_1200725391#3_veh108" route="route_16_1200725391#3" type="car" />
   <route edges="1200725391#3 1249027318 22852231#0 22852231#1 -1149808813 654405571#1 654405571#2 1237761233#1 -1237761233#1 1117096321#0" id="route_17_1200725391#3" />
   <vehicle depart="109" id="route_17_1200725391#3_veh109" route="route_17_1200725391#3" type="car" />
   <route edges="1200725391#3 1123108621 658655411#0 658655411#1 658655411#2 658655411#3 658655411#4 658655411#5 701012912#1 -701012911 -22850107#8" id="route_18_1200725391#3" />
   <vehicle depart="110" id="route_18_1200725391#3_veh110" route="route_18_1200725391#3" type="car" />