<additional><laneAreaDetector file="ild.out" freq="1" id="-1123855693_0" lane="-1123855693_0" pos="2.825" /><laneAreaDetector file="ild.out" freq="1" id="-1133675674#0_0" lane="-1133675674#0_0" pos="98.935" /><laneAreaDetector file="ild.out" freq="1" id="-1133675674#1_0" lane="-1133675674#1_0" pos="21.695" /><laneAreaDetector file="ild.out" freq="1" id="-1133675674#2_0" lane="-1133675674#2_0" pos="36.82" /><laneAreaDetector file="ild.out" freq="1" id="-1133675674#3_0" lane="-1133675674#3_0" pos="12.755" /><laneAreaDetector file="ild.out" freq="1" id="-1133675674#4_0" lane="-1133675674#4_0" pos="5.86" /><laneAreaDetector file="ild.out" freq="1" id="-1133675674#5_0" lane="-1133675674#5_0" pos="14.89" /><laneAreaDetector file="ild.out" freq="1" id="-1133675674#6_0" lane="-1133675674#6_0" pos="1.475" /><laneAreaDetector file="ild.out" freq="1" id="-1136392239_0" lane="-1136392239_0" pos="66.825" /><laneAreaDetector file="ild.out" freq="1" id="-1149808813_0" lane="-1149808813_0" pos="20.785" /><laneAreaDetector file="ild.out" freq="1" id="-1177154781#0_0" lane="-1177154781#0_0" pos="19.13" /><laneAreaDetector file="ild.out" freq="1" id="-1177154781#1_0" lane="-1177154781#1_0" pos="25.49" /><laneAreaDetector file="ild.out" freq="1" id="-1177156540_0" lane="-1177156540_0" pos="24.595" /><laneAreaDetector file="ild.out" freq="1" id="-1200725389#1_0" lane="-1200725389#1_0" pos="23.99" /><laneAreaDetector file="ild.out" freq="1" id="-1208009560_0" lane="-1208009560_0" pos="47.0" /><laneAreaDetector file="ild.out" freq="1" id="-1210675283_0" lane="-1210675283_0" pos="22.04" /><laneAreaDetector file="ild.out" freq="1" id="-1210675284_0" lane="-1210675284_0" pos="12.39" /><laneAreaDetector file="ild.out" freq="1" id="-1219443082#1_0" lane="-1219443082#1_0" pos="26.26" /><laneAreaDetector file="ild.out" freq="1" id="-1219443083_0" lane="-1219443083_0" pos="18.67" /><laneAreaDetector file="ild.out" freq="1" id="-1219443084_0" lane="-1219443084_0" pos="19.875" /><laneAreaDetector file="ild.out" freq="1" id="-1237761220_0" lane="-1237761220_0" pos="0.815" /><laneAreaDetector file="ild.out" freq="1" id="-1237761221_0" lane="-1237761221_0" pos="126.725" /><laneAreaDetector file="ild.out" freq="1" id="-1237761225#1_0" lane="-1237761225#1_0" pos="0.1" /><laneAreaDetector file="ild.out" freq="1" id="-1237761233#1_0" lane="-1237761233#1_0" pos="9.13" /><laneAreaDetector file="ild.out" freq="1" id="-1245416711_0" lane="-1245416711_0" pos="58.235" /><laneAreaDetector file="ild.out" freq="1" id="-1328988263_0" lane="-1328988263_0" pos="7.635" /><laneAreaDetector file="ild.out" freq="1" id="-1328988718_0" lane="-1328988718_0" pos="35.665" /><laneAreaDetector file="ild.out" freq="1" id="-152203348#1_0" lane="-152203348#1_0" pos="71.215" /><laneAreaDetector file="ild.out" freq="1" id="-152203348#2_0" lane="-152203348#2_0" pos="7.65" /><laneAreaDetector file="ild.out" freq="1" id="-152203348#3_0" lane="-152203348#3_0" pos="16.685" /><laneAreaDetector file="ild.out" freq="1" id="-152203348#4_0" lane="-152203348#4_0" pos="29.0" /><laneAreaDetector file="ild.out" freq="1" id="-152203348#5_0" lane="-152203348#5_0" pos="347.905" /><laneAreaDetector file="ild.out" freq="1" id="-211658449_0" lane="-211658449_0" pos="16.76" /><laneAreaDetector file="ild.out" freq="1" id="-211658451_0" lane="-211658451_0" pos="24.275" /><laneAreaDetector file="ild.out" freq="1" id="-211658453_0" lane="-211658453_0" pos="15.31" /><laneAreaDetector file="ild.out" freq="1" id="-211658460_0" lane="-211658460_0" pos="22.505" /><laneAreaDetector file="ild.out" freq="1" id="-211658469_0" lane="-211658469_0" pos="16.1" /><laneAreaDetector file="ild.out" freq="1" id="-211658480_0" lane="-211658480_0" pos="16.815" /><laneAreaDetector file="ild.out" freq="1" id="-211658481_0" lane="-211658481_0" pos="15.55" /><laneAreaDetector file="ild.out" freq="1" id="-211658487_0" lane="-211658487_0" pos="21.825" /><laneAreaDetector file="ild.out" freq="1" id="-211658492_0" lane="-211658492_0" pos="15.78" /><laneAreaDetector file="ild.out" freq="1" id="-211658501_0" lane="-211658501_0" pos="15.765" /><laneAreaDetector file="ild.out" freq="1" id="-211658503_0" lane="-211658503_0" pos="16.26" /><laneAreaDetector file="ild.out" freq="1" id="-211658547_0" lane="-211658547_0" pos="27.77" /><laneAreaDetector file="ild.out" freq="1" id="-211658572_0" lane="-211658572_0" pos="20.82" /><laneAreaDetector file="ild.out" freq="1" id="-211658601#0_0" lane="-211658601#0_0" pos="5.205" /><laneAreaDetector file="ild.out" freq="1" id="-211658601#1_0" lane="-211658601#1_0" pos="6.58" /><laneAreaDetector file="ild.out" freq="1" id="-211658601#2_0" lane="-211658601#2_0" pos="5.715" /><laneAreaDetector file="ild.out" freq="1" id="-211658601#3_0" lane="-211658601#3_0" pos="4.575" /><laneAreaDetector file="ild.out" freq="1" id="-211658612#0_0" lane="-211658612#0_0" pos="37.705" /><laneAreaDetector file="ild.out" freq="1" id="-211658612#1_0" lane="-211658612#1_0" pos="8.025" /><laneAreaDetector file="ild.out" freq="1" id="-211658612#3_0" lane="-211658612#3_0" pos="22.35" /><laneAreaDetector file="ild.out" freq="1" id="-211658626#0_0" lane="-211658626#0_0" pos="8.365" /><laneAreaDetector file="ild.out" freq="1" id="-211658626#1_0" lane="-211658626#1_0" pos="6.67" /><laneAreaDetector file="ild.out" freq="1" id="-211658626#2_0" lane="-211658626#2_0" pos="6.745" /><laneAreaDetector file="ild.out" freq="1" id="-211658626#3_0" lane="-211658626#3_0" pos="6.345" /><laneAreaDetector file="ild.out" freq="1" id="-211658626#4_0" lane="-211658626#4_0" pos="7.14" /><laneAreaDetector file="ild.out" freq="1" id="-211658626#5_0" lane="-211658626#5_0" pos="7.265" /><laneAreaDetector file="ild.out" freq="1" id="-211658626#6_0" lane="-211658626#6_0" pos="23.1" /><laneAreaDetector file="ild.out" freq="1" id="-220308833#0_0" lane="-220308833#0_0" pos="56.525" /><laneAreaDetector file="ild.out" freq="1" id="-220308833#1_0" lane="-220308833#1_0" pos="29.605" /><laneAreaDetector file="ild.out" freq="1" id="-220308833#2_0" lane="-220308833#2_0" pos="49.46" /><laneAreaDetector file="ild.out" freq="1" id="-220308833#3_0" lane="-220308833#3_0" pos="85.12" /><laneAreaDetector file="ild.out" freq="1" id="-220308833#4_0" lane="-220308833#4_0" pos="65.18" /><laneAreaDetector file="ild.out" freq="1" id="-220308833#5_0" lane="-220308833#5_0" pos="5.98" /><laneAreaDetector file="ild.out" freq="1" id="-220308833#6_0" lane="-220308833#6_0" pos="0.1" /><laneAreaDetector file="ild.out" freq="1" id="-22850088#0_0" lane="-22850088#0_0" pos="8.295" /><laneAreaDetector file="ild.out" freq="1" id="-22850088#1_0" lane="-22850088#1_0" pos="44.6" /><laneAreaDetector file="ild.out" freq="1" id="-22850088#2_0" lane="-22850088#2_0" pos="87.19" /><laneAreaDetector file="ild.out" freq="1" id="-22850088#3_0" lane="-22850088#3_0" pos="9.26" /><laneAreaDetector file="ild.out" freq="1" id="-22850107#1_0" lane="-22850107#1_0" pos="18.135" /><laneAreaDetector file="ild.out" freq="1" id="-22850107#2_0" lane="-22850107#2_0" pos="20.92" /><laneAreaDetector file="ild.out" freq="1" id="-22850107#3_0" lane="-22850107#3_0" pos="20.395" /><laneAreaDetector file="ild.out" freq="1" id="-22850107#4_0" lane="-22850107#4_0" pos="20.965" /><laneAreaDetector file="ild.out" freq="1" id="-22850107#5_0" lane="-22850107#5_0" pos="5.47" /><laneAreaDetector file="ild.out" freq="1" id="-22850107#6_0" lane="-22850107#6_0" pos="43.73" /><laneAreaDetector file="ild.out" freq="1" id="-22850107#7_0" lane="-22850107#7_0" pos="33.005" /><laneAreaDetector file="ild.out" freq="1" id="-22850107#8_0" lane="-22850107#8_0" pos="21.21" /><laneAreaDetector file="ild.out" freq="1" id="-22850107#9_0" lane="-22850107#9_0" pos="112.275" /><laneAreaDetector file="ild.out" freq="1" id="-22850142#0_0" lane="-22850142#0_0" pos="40.805" /><laneAreaDetector file="ild.out" freq="1" id="-22850142#1_0" lane="-22850142#1_0" pos="520.835" /><laneAreaDetector file="ild.out" freq="1" id="-22850187#0_0" lane="-22850187#0_0" pos="20.21" /><laneAreaDetector file="ild.out" freq="1" id="-22850187#1_0" lane="-22850187#1_0" pos="18.075" /><laneAreaDetector file="ild.out" freq="1" id="-22850194#0_0" lane="-22850194#0_0" pos="83.585" /><laneAreaDetector file="ild.out" freq="1" id="-22850194#1_0" lane="-22850194#1_0" pos="100.095" /><laneAreaDetector file="ild.out" freq="1" id="-22850196#0_0" lane="-22850196#0_0" pos="32.835" /><laneAreaDetector file="ild.out" freq="1" id="-22850196#1_0" lane="-22850196#1_0" pos="19.38" /><laneAreaDetector file="ild.out" freq="1" id="-22850196#2_0" lane="-22850196#2_0" pos="26.045" /><laneAreaDetector file="ild.out" freq="1" id="-22850232_0" lane="-22850232_0" pos="87.625" /><laneAreaDetector file="ild.out" freq="1" id="-22850270_0" lane="-22850270_0" pos="20.04" /><laneAreaDetector file="ild.out" freq="1" id="-22850285_0" lane="-22850285_0" pos="21.08" /><laneAreaDetector file="ild.out" freq="1" id="-22850287_0" lane="-22850287_0" pos="30.845" /><laneAreaDetector file="ild.out" freq="1" id="-22850313#0_0" lane="-22850313#0_0" pos="66.895" /><laneAreaDetector file="ild.out" freq="1" id="-22850313#1_0" lane="-22850313#1_0" pos="21.795" /><laneAreaDetector file="ild.out" freq="1" id="-22850313#2_0" lane="-22850313#2_0" pos="24.775" /><laneAreaDetector file="ild.out" freq="1" id="-22850376#0_0" lane="-22850376#0_0" pos="161.575" /><laneAreaDetector file="ild.out" freq="1" id="-22850376#1_0" lane="-22850376#1_0" pos="159.335" /><laneAreaDetector file="ild.out" freq="1" id="-22850376#3_0" lane="-22850376#3_0" pos="329.87" /><laneAreaDetector file="ild.out" freq="1" id="-39220085#0_0" lane="-39220085#0_0" pos="47.545" /><laneAreaDetector file="ild.out" freq="1" id="-39220085#1_0" lane="-39220085#1_0" pos="0.1" /><laneAreaDetector file="ild.out" freq="1" id="-39220085#2_0" lane="-39220085#2_0" pos="87.64" /><laneAreaDetector file="ild.out" freq="1" id="-39220085#3_0" lane="-39220085#3_0" pos="44.68" /><laneAreaDetector file="ild.out" freq="1" id="-39220085#4_0" lane="-39220085#4_0" pos="17.87" /><laneAreaDetector file="ild.out" freq="1" id="-39220085#5_0" lane="-39220085#5_0" pos="11.955" /><laneAreaDetector file="ild.out" freq="1" id="-423778872_0" lane="-423778872_0" pos="129.67" /><laneAreaDetector file="ild.out" freq="1" id="-610651679#0_0" lane="-610651679#0_0" pos="9.96" /><laneAreaDetector file="ild.out" freq="1" id="-610651679#2_0" lane="-610651679#2_0" pos="255.2" /><laneAreaDetector file="ild.out" freq="1" id="-701012911_0" lane="-701012911_0" pos="45.48" /><laneAreaDetector file="ild.out" freq="1" id="-701040455#0_0" lane="-701040455#0_0" pos="14.99" /><laneAreaDetector file="ild.out" freq="1" id="-701040455#1_0" lane="-701040455#1_0" pos="32.32" /><laneAreaDetector file="ild.out" freq="1" id="-701040455#2_0" lane="-701040455#2_0" pos="13.58" /><laneAreaDetector file="ild.out" freq="1" id="-794831506#0_0" lane="-794831506#0_0" pos="76.37" /><laneAreaDetector file="ild.out" freq="1" id="-794831506#1_0" lane="-794831506#1_0" pos="67.375" /><laneAreaDetector file="ild.out" freq="1" id="-924453769#0_0" lane="-924453769#0_0" pos="77.005" /><laneAreaDetector file="ild.out" freq="1" id="-924453769#1_0" lane="-924453769#1_0" pos="13.4" /><laneAreaDetector file="ild.out" freq="1" id="-938741295#0_0" lane="-938741295#0_0" pos="19.19" /><laneAreaDetector file="ild.out" freq="1" id="-938741295#1_0" lane="-938741295#1_0" pos="25.785" /><laneAreaDetector file="ild.out" freq="1" id="-940629107_0" lane="-940629107_0" pos="121.455" /><laneAreaDetector file="ild.out" freq="1" id="-993557579_0" lane="-993557579_0" pos="19.45" /><laneAreaDetector file="ild.out" freq="1" id="-993557580_0" lane="-993557580_0" pos="24.15" /><laneAreaDetector file="ild.out" freq="1" id="1062054751_0" lane="1062054751_0" pos="11.025" /><laneAreaDetector file="ild.out" freq="1" id="1103136711#0_0" lane="1103136711#0_0" pos="100.815" /><laneAreaDetector file="ild.out" freq="1" id="1103136711#0_1" lane="1103136711#0_1" pos="100.815" /><laneAreaDetector file="ild.out" freq="1" id="1103136711#1_0" lane="1103136711#1_0" pos="40.48" /><laneAreaDetector file="ild.out" freq="1" id="1103136711#1_1" lane="1103136711#1_1" pos="40.48" /><laneAreaDetector file="ild.out" freq="1" id="1117096321#0_0" lane="1117096321#0_0" pos="43.235" /><laneAreaDetector file="ild.out" freq="1" id="1117096321#0_1" lane="1117096321#0_1" pos="43.235" /><laneAreaDetector file="ild.out" freq="1" id="1117096321#2_0" lane="1117096321#2_0" pos="112.265" /><laneAreaDetector file="ild.out" freq="1" id="1117096321#2_1" lane="1117096321#2_1" pos="112.265" /><laneAreaDetector file="ild.out" freq="1" id="1123108621_0" lane="1123108621_0" pos="5.935" /><laneAreaDetector file="ild.out" freq="1" id="1123855693_0" lane="1123855693_0" pos="2.965" /><laneAreaDetector file="ild.out" freq="1" id="1123855694_0" lane="1123855694_0" pos="10.2" /><laneAreaDetector file="ild.out" freq="1" id="1123855694_1" lane="1123855694_1" pos="10.2" /><laneAreaDetector file="ild.out" freq="1" id="1123855695_0" lane="1123855695_0" pos="12.625" /><laneAreaDetector file="ild.out" freq="1" id="1123855696_0" lane="1123855696_0" pos="10.745" /><laneAreaDetector file="ild.out" freq="1" id="1123857685_0" lane="1123857685_0" pos="6.68" /><laneAreaDetector file="ild.out" freq="1" id="1133675674#0_0" lane="1133675674#0_0" pos="98.935" /><laneAreaDetector file="ild.out" freq="1" id="1133675674#1_0" lane="1133675674#1_0" pos="21.695" /><laneAreaDetector file="ild.out" freq="1" id="1133675674#2_0" lane="1133675674#2_0" pos="36.82" /><laneAreaDetector file="ild.out" freq="1" id="1133675674#3_0" lane="1133675674#3_0" pos="12.76" /><laneAreaDetector file="ild.out" freq="1" id="1133675674#4_0" lane="1133675674#4_0" pos="5.86" /><laneAreaDetector file="ild.out" freq="1" id="1133675674#5_0" lane="1133675674#5_0" pos="14.89" /><laneAreaDetector file="ild.out" freq="1" id="1133675674#6_0" lane="1133675674#6_0" pos="1.475" /><laneAreaDetector file="ild.out" freq="1" id="1136392239_0" lane="1136392239_0" pos="64.065" /><laneAreaDetector file="ild.out" freq="1" id="1138273335#0_0" lane="1138273335#0_0" pos="9.86" /><laneAreaDetector file="ild.out" freq="1" id="1138273335#0_1" lane="1138273335#0_1" pos="9.86" /><laneAreaDetector file="ild.out" freq="1" id="1138273335#1_0" lane="1138273335#1_0" pos="275.63" /><laneAreaDetector file="ild.out" freq="1" id="1138273335#1_1" lane="1138273335#1_1" pos="275.63" /><laneAreaDetector file="ild.out" freq="1" id="1149808813_0" lane="1149808813_0" pos="20.78" /><laneAreaDetector file="ild.out" freq="1" id="1177154781#0_0" lane="1177154781#0_0" pos="19.13" /><laneAreaDetector file="ild.out" freq="1" id="1177154781#1_0" lane="1177154781#1_0" pos="25.49" /><laneAreaDetector file="ild.out" freq="1" id="1177154782_0" lane="1177154782_0" pos="64.09" /><laneAreaDetector file="ild.out" freq="1" id="1177156540_0" lane="1177156540_0" pos="24.595" /><laneAreaDetector file="ild.out" freq="1" id="1188779485_0" lane="1188779485_0" pos="1.755" /><laneAreaDetector file="ild.out" freq="1" id="1200725389#1_0" lane="1200725389#1_0" pos="23.99" /><laneAreaDetector file="ild.out" freq="1" id="1200725390#0_0" lane="1200725390#0_0" pos="151.045" /><laneAreaDetector file="ild.out" freq="1" id="1200725390#0_1" lane="1200725390#0_1" pos="151.045" /><laneAreaDetector file="ild.out" freq="1" id="1200725390#1_0" lane="1200725390#1_0" pos="9.04" /><laneAreaDetector file="ild.out" freq="1" id="1200725390#1_1" lane="1200725390#1_1" pos="9.04" /><laneAreaDetector file="ild.out" freq="1" id="1200725391#1_0" lane="1200725391#1_0" pos="22.39" /><laneAreaDetector file="ild.out" freq="1" id="1200725391#1_1" lane="1200725391#1_1" pos="22.39" /><laneAreaDetector file="ild.out" freq="1" id="1200725391#2_0" lane="1200725391#2_0" pos="27.18" /><laneAreaDetector file="ild.out" freq="1" id="1200725391#2_1" lane="1200725391#2_1" pos="27.18" /><laneAreaDetector file="ild.out" freq="1" id="1200725391#3_0" lane="1200725391#3_0" pos="88.43" /><laneAreaDetector file="ild.out" freq="1" id="1200725391#3_1" lane="1200725391#3_1" pos="88.43" /><laneAreaDetector file="ild.out" freq="1" id="1201591783_0" lane="1201591783_0" pos="1.47" /><laneAreaDetector file="ild.out" freq="1" id="1208009560_0" lane="1208009560_0" pos="44.44" /><laneAreaDetector file="ild.out" freq="1" id="1210675283_0" lane="1210675283_0" pos="22.04" /><laneAreaDetector file="ild.out" freq="1" id="1210675284_0" lane="1210675284_0" pos="12.39" /><laneAreaDetector file="ild.out" freq="1" id="1219443082#1_0" lane="1219443082#1_0" pos="26.26" /><laneAreaDetector file="ild.out" freq="1" id="1219443083_0" lane="1219443083_0" pos="18.67" /><laneAreaDetector file="ild.out" freq="1" id="1219443084_0" lane="1219443084_0" pos="19.875" /><laneAreaDetector file="ild.out" freq="1" id="1234788292#0_0" lane="1234788292#0_0" pos="90.01" /><laneAreaDetector file="ild.out" freq="1" id="1234788292#1_0" lane="1234788292#1_0" pos="27.865" /><laneAreaDetector file="ild.out" freq="1" id="1234788292#2_0" lane="1234788292#2_0" pos="38.665" /><laneAreaDetector file="ild.out" freq="1" id="1236044643#1_0" lane="1236044643#1_0" pos="63.86" /><laneAreaDetector file="ild.out" freq="1" id="1236044645_0" lane="1236044645_0" pos="311.485" /><laneAreaDetector file="ild.out" freq="1" id="1236044645_1" lane="1236044645_1" pos="311.485" /><laneAreaDetector file="ild.out" freq="1" id="1236044674#0_0" lane="1236044674#0_0" pos="25.5" /><laneAreaDetector file="ild.out" freq="1" id="1236044674#1_0" lane="1236044674#1_0" pos="51.16" /><laneAreaDetector file="ild.out" freq="1" id="1237761220_0" lane="1237761220_0" pos="0.815" /><laneAreaDetector file="ild.out" freq="1" id="1237761221_0" lane="1237761221_0" pos="126.685" /><laneAreaDetector file="ild.out" freq="1" id="1237761225#1_0" lane="1237761225#1_0" pos="0.1" /><laneAreaDetector file="ild.out" freq="1" id="1237761233#1_0" lane="1237761233#1_0" pos="9.13" /><laneAreaDetector file="ild.out" freq="1" id="1239434254#1_0" lane="1239434254#1_0" pos="6.17" /><laneAreaDetector file="ild.out" freq="1" id="1239434254#1_1" lane="1239434254#1_1" pos="6.17" /><laneAreaDetector file="ild.out" freq="1" id="1239434255#0_0" lane="1239434255#0_0" pos="20.69" /><laneAreaDetector file="ild.out" freq="1" id="1239434255#0_1" lane="1239434255#0_1" pos="20.69" /><laneAreaDetector file="ild.out" freq="1" id="1239434255#2_0" lane="1239434255#2_0" pos="15.03" /><laneAreaDetector file="ild.out" freq="1" id="1239434255#2_1" lane="1239434255#2_1" pos="15.03" /><laneAreaDetector file="ild.out" freq="1" id="1239434255#3_0" lane="1239434255#3_0" pos="22.445" /><laneAreaDetector file="ild.out" freq="1" id="1239434255#3_1" lane="1239434255#3_1" pos="22.445" /><laneAreaDetector file="ild.out" freq="1" id="1239434255#3-AddedOnRampEdge_0" lane="1239434255#3-AddedOnRampEdge_0" pos="48.0" /><laneAreaDetector file="ild.out" freq="1" id="1239434255#3-AddedOnRampEdge_1" lane="1239434255#3-AddedOnRampEdge_1" pos="48.0" /><laneAreaDetector file="ild.out" freq="1" id="1239434255#3-AddedOnRampEdge_2" lane="1239434255#3-AddedOnRampEdge_2" pos="48.0" /><laneAreaDetector file="ild.out" freq="1" id="1239434255#4_0" lane="1239434255#4_0" pos="15.82" /><laneAreaDetector file="ild.out" freq="1" id="1239434255#4_1" lane="1239434255#4_1" pos="15.82" /><laneAreaDetector file="ild.out" freq="1" id="1239434255#5_0" lane="1239434255#5_0" pos="15.96" /><laneAreaDetector file="ild.out" freq="1" id="1239434255#5_1" lane="1239434255#5_1" pos="15.96" /><laneAreaDetector file="ild.out" freq="1" id="1239434255#6_0" lane="1239434255#6_0" pos="284.345" /><laneAreaDetector file="ild.out" freq="1" id="1239434255#6_1" lane="1239434255#6_1" pos="284.345" /><laneAreaDetector file="ild.out" freq="1" id="1239434256#0_0" lane="1239434256#0_0" pos="413.7" /><laneAreaDetector file="ild.out" freq="1" id="1239434256#0_1" lane="1239434256#0_1" pos="413.7" /><laneAreaDetector file="ild.out" freq="1" id="1239434258#2_0" lane="1239434258#2_0" pos="27.685" /><laneAreaDetector file="ild.out" freq="1" id="1239434258#2_1" lane="1239434258#2_1" pos="27.685" /><laneAreaDetector file="ild.out" freq="1" id="1239434258#3_0" lane="1239434258#3_0" pos="287.45" /><laneAreaDetector file="ild.out" freq="1" id="1239434258#3_1" lane="1239434258#3_1" pos="287.45" /><laneAreaDetector file="ild.out" freq="1" id="1245416711_0" lane="1245416711_0" pos="58.235" /><laneAreaDetector file="ild.out" freq="1" id="1245531541_0" lane="1245531541_0" pos="12.55" /><laneAreaDetector file="ild.out" freq="1" id="1245531541_1" lane="1245531541_1" pos="12.55" /><laneAreaDetector file="ild.out" freq="1" id="1245531542_0" lane="1245531542_0" pos="12.105" /><laneAreaDetector file="ild.out" freq="1" id="1245531542_1" lane="1245531542_1" pos="12.105" /><laneAreaDetector file="ild.out" freq="1" id="1249027317_0" lane="1249027317_0" pos="10.745" /><laneAreaDetector file="ild.out" freq="1" id="1249027318_0" lane="1249027318_0" pos="7.77" /><laneAreaDetector file="ild.out" freq="1" id="1249027318_1" lane="1249027318_1" pos="7.77" /><laneAreaDetector file="ild.out" freq="1" id="1266293263_0" lane="1266293263_0" pos="938.045" /><laneAreaDetector file="ild.out" freq="1" id="1266293263_1" lane="1266293263_1" pos="938.045" /><laneAreaDetector file="ild.out" freq="1" id="1285590644#0_0" lane="1285590644#0_0" pos="56.87" /><laneAreaDetector file="ild.out" freq="1" id="1285590644#1_0" lane="1285590644#1_0" pos="25.99" /><laneAreaDetector file="ild.out" freq="1" id="1285590647#0_0" lane="1285590647#0_0" pos="37.82" /><laneAreaDetector file="ild.out" freq="1" id="1285590647#1_0" lane="1285590647#1_0" pos="122.85" /><laneAreaDetector file="ild.out" freq="1" id="1328988263_0" lane="1328988263_0" pos="7.635" /><laneAreaDetector file="ild.out" freq="1" id="1328988718_0" lane="1328988718_0" pos="33.17" /><laneAreaDetector file="ild.out" freq="1" id="152203348#1_0" lane="152203348#1_0" pos="71.815" /><laneAreaDetector file="ild.out" freq="1" id="152203348#2_0" lane="152203348#2_0" pos="7.65" /><laneAreaDetector file="ild.out" freq="1" id="152203348#3_0" lane="152203348#3_0" pos="16.685" /><laneAreaDetector file="ild.out" freq="1" id="152203348#4_0" lane="152203348#4_0" pos="29.0" /><laneAreaDetector file="ild.out" freq="1" id="152203348#5_0" lane="152203348#5_0" pos="347.465" /><laneAreaDetector file="ild.out" freq="1" id="152203822_0" lane="152203822_0" pos="260.645" /><laneAreaDetector file="ild.out" freq="1" id="152203822_1" lane="152203822_1" pos="260.645" /><laneAreaDetector file="ild.out" freq="1" id="211658449_0" lane="211658449_0" pos="16.76" /><laneAreaDetector file="ild.out" freq="1" id="211658451_0" lane="211658451_0" pos="24.275" /><laneAreaDetector file="ild.out" freq="1" id="211658453_0" lane="211658453_0" pos="15.31" /><laneAreaDetector file="ild.out" freq="1" id="211658460_0" lane="211658460_0" pos="22.505" /><laneAreaDetector file="ild.out" freq="1" id="211658467_0" lane="211658467_0" pos="24.775" /><laneAreaDetector file="ild.out" freq="1" id="211658469_0" lane="211658469_0" pos="16.1" /><laneAreaDetector file="ild.out" freq="1" id="211658480_0" lane="211658480_0" pos="16.815" /><laneAreaDetector file="ild.out" freq="1" id="211658481_0" lane="211658481_0" pos="15.55" /><laneAreaDetector file="ild.out" freq="1" id="211658487_0" lane="211658487_0" pos="21.825" /><laneAreaDetector file="ild.out" freq="1" id="211658492_0" lane="211658492_0" pos="15.78" /><laneAreaDetector file="ild.out" freq="1" id="211658501_0" lane="211658501_0" pos="15.765" /><laneAreaDetector file="ild.out" freq="1" id="211658503_0" lane="211658503_0" pos="16.26" /><laneAreaDetector file="ild.out" freq="1" id="211658547_0" lane="211658547_0" pos="28.47" /><laneAreaDetector file="ild.out" freq="1" id="211658572_0" lane="211658572_0" pos="20.745" /><laneAreaDetector file="ild.out" freq="1" id="211658601#0_0" lane="211658601#0_0" pos="5.205" /><laneAreaDetector file="ild.out" freq="1" id="211658601#1_0" lane="211658601#1_0" pos="6.58" /><laneAreaDetector file="ild.out" freq="1" id="211658601#2_0" lane="211658601#2_0" pos="5.715" /><laneAreaDetector file="ild.out" freq="1" id="211658601#3_0" lane="211658601#3_0" pos="4.575" /><laneAreaDetector file="ild.out" freq="1" id="211658612#0_0" lane="211658612#0_0" pos="35.105" /><laneAreaDetector file="ild.out" freq="1" id="211658612#1_0" lane="211658612#1_0" pos="8.025" /><laneAreaDetector file="ild.out" freq="1" id="211658612#3_0" lane="211658612#3_0" pos="22.35" /><laneAreaDetector file="ild.out" freq="1" id="211658626#0_0" lane="211658626#0_0" pos="8.365" /><laneAreaDetector file="ild.out" freq="1" id="211658626#1_0" lane="211658626#1_0" pos="6.67" /><laneAreaDetector file="ild.out" freq="1" id="211658626#2_0" lane="211658626#2_0" pos="6.745" /><laneAreaDetector file="ild.out" freq="1" id="211658626#3_0" lane="211658626#3_0" pos="6.345" /><laneAreaDetector file="ild.out" freq="1" id="211658626#4_0" lane="211658626#4_0" pos="7.14" /><laneAreaDetector file="ild.out" freq="1" id="211658626#5_0" lane="211658626#5_0" pos="7.265" /><laneAreaDetector file="ild.out" freq="1" id="211658626#6_0" lane="211658626#6_0" pos="22.075" /><laneAreaDetector file="ild.out" freq="1" id="220308833#0_0" lane="220308833#0_0" pos="56.525" /><laneAreaDetector file="ild.out" freq="1" id="220308833#1_0" lane="220308833#1_0" pos="29.605" /><laneAreaDetector file="ild.out" freq="1" id="220308833#2_0" lane="220308833#2_0" pos="49.46" /><laneAreaDetector file="ild.out" freq="1" id="220308833#3_0" lane="220308833#3_0" pos="85.12" /><laneAreaDetector file="ild.out" freq="1" id="220308833#4_0" lane="220308833#4_0" pos="65.18" /><laneAreaDetector file="ild.out" freq="1" id="220308833#5_0" lane="220308833#5_0" pos="5.98" /><laneAreaDetector file="ild.out" freq="1" id="220308833#6_0" lane="220308833#6_0" pos="0.1" /><laneAreaDetector file="ild.out" freq="1" id="220843434_0" lane="220843434_0" pos="28.53" /><laneAreaDetector file="ild.out" freq="1" id="22850088#0_0" lane="22850088#0_0" pos="8.295" /><laneAreaDetector file="ild.out" freq="1" id="22850088#1_0" lane="22850088#1_0" pos="44.6" /><laneAreaDetector file="ild.out" freq="1" id="22850088#2_0" lane="22850088#2_0" pos="87.19" /><laneAreaDetector file="ild.out" freq="1" id="22850088#3_0" lane="22850088#3_0" pos="9.26" /><laneAreaDetector file="ild.out" freq="1" id="22850107#1_0" lane="22850107#1_0" pos="18.135" /><laneAreaDetector file="ild.out" freq="1" id="22850107#2_0" lane="22850107#2_0" pos="20.92" /><laneAreaDetector file="ild.out" freq="1" id="22850107#3_0" lane="22850107#3_0" pos="20.395" /><laneAreaDetector file="ild.out" freq="1" id="22850107#4_0" lane="22850107#4_0" pos="20.965" /><laneAreaDetector file="ild.out" freq="1" id="22850107#5_0" lane="22850107#5_0" pos="5.47" /><laneAreaDetector file="ild.out" freq="1" id="22850107#6_0" lane="22850107#6_0" pos="43.73" /><laneAreaDetector file="ild.out" freq="1" id="22850107#7_0" lane="22850107#7_0" pos="33.005" /><laneAreaDetector file="ild.out" freq="1" id="22850107#8_0" lane="22850107#8_0" pos="21.21" /><laneAreaDetector file="ild.out" freq="1" id="22850107#9_0" lane="22850107#9_0" pos="112.16" /><laneAreaDetector file="ild.out" freq="1" id="22850142#0_0" lane="22850142#0_0" pos="40.855" /><laneAreaDetector file="ild.out" freq="1" id="22850142#1_0" lane="22850142#1_0" pos="522.68" /><laneAreaDetector file="ild.out" freq="1" id="22850187#0_0" lane="22850187#0_0" pos="20.21" /><laneAreaDetector file="ild.out" freq="1" id="22850187#1_0" lane="22850187#1_0" pos="18.075" /><laneAreaDetector file="ild.out" freq="1" id="22850194#0_0" lane="22850194#0_0" pos="83.585" /><laneAreaDetector file="ild.out" freq="1" id="22850194#1_0" lane="22850194#1_0" pos="100.095" /><laneAreaDetector file="ild.out" freq="1" id="22850196#0_0" lane="22850196#0_0" pos="32.835" /><laneAreaDetector file="ild.out" freq="1" id="22850196#1_0" lane="22850196#1_0" pos="19.38" /><laneAreaDetector file="ild.out" freq="1" id="22850196#2_0" lane="22850196#2_0" pos="26.045" /><laneAreaDetector file="ild.out" freq="1" id="22850232_0" lane="22850232_0" pos="88.83" /><laneAreaDetector file="ild.out" freq="1" id="22850270_0" lane="22850270_0" pos="20.04" /><laneAreaDetector file="ild.out" freq="1" id="22850285_0" lane="22850285_0" pos="21.1" /><laneAreaDetector file="ild.out" freq="1" id="22850287_0" lane="22850287_0" pos="32.86" /><laneAreaDetector file="ild.out" freq="1" id="22850313#0_0" lane="22850313#0_0" pos="67.275" /><laneAreaDetector file="ild.out" freq="1" id="22850313#1_0" lane="22850313#1_0" pos="21.795" /><laneAreaDetector file="ild.out" freq="1" id="22850313#2_0" lane="22850313#2_0" pos="24.775" /><laneAreaDetector file="ild.out" freq="1" id="22850347#0_0" lane="22850347#0_0" pos="45.425" /><laneAreaDetector file="ild.out" freq="1" id="22850347#1_0" lane="22850347#1_0" pos="22.81" /><laneAreaDetector file="ild.out" freq="1" id="22850376#0_0" lane="22850376#0_0" pos="161.575" /><laneAreaDetector file="ild.out" freq="1" id="22850376#1_0" lane="22850376#1_0" pos="159.335" /><laneAreaDetector file="ild.out" freq="1" id="22850376#3_0" lane="22850376#3_0" pos="331.465" /><laneAreaDetector file="ild.out" freq="1" id="22850489#0_0" lane="22850489#0_0" pos="39.265" /><laneAreaDetector file="ild.out" freq="1" id="22850489#0_1" lane="22850489#0_1" pos="39.265" /><laneAreaDetector file="ild.out" freq="1" id="22850489#1_0" lane="22850489#1_0" pos="58.285" /><laneAreaDetector file="ild.out" freq="1" id="22850489#1_1" lane="22850489#1_1" pos="58.285" /><laneAreaDetector file="ild.out" freq="1" id="22850489#2_0" lane="22850489#2_0" pos="4.85" /><laneAreaDetector file="ild.out" freq="1" id="22850489#2_1" lane="22850489#2_1" pos="4.85" /><laneAreaDetector file="ild.out" freq="1" id="22850489#3_0" lane="22850489#3_0" pos="29.46" /><laneAreaDetector file="ild.out" freq="1" id="22850489#3_1" lane="22850489#3_1" pos="29.46" /><laneAreaDetector file="ild.out" freq="1" id="22850489#4_0" lane="22850489#4_0" pos="59.17" /><laneAreaDetector file="ild.out" freq="1" id="22850489#4_1" lane="22850489#4_1" pos="59.17" /><laneAreaDetector file="ild.out" freq="1" id="22850489#5_0" lane="22