<routes>
   <vType accel="2.6" decel="4.5" id="car" length="5.0" maxSpeed="80" sigma="0.5" />
   <route edges="22852231#0 22852231#1 -1149808813 654405571#1 654405571#2 1200725390#0 1200725390#1 1239434258#2 1239434258#3 1236044645 22850489#0" id="route_0_22852231#0" />
   <vehicle depart="0" id="route_0_22852231#0_veh0" route="route_0_22852231#0" type="car" />
   <route edges="22852231#0 22852231#1 -1149808813 654405571#1 654405571#2 1249027317 658655411#0 658655411#1 658655412#5 658655412#6" id="route_1_22852231#0" />
   <vehicle depart="1" id="route_1_22852231#0_veh1" route="route_1_22852231#0" type="car" />
   <route edges="22852231#0 22852231#1 -1149808813 654405571#1 654405571#2 1200725390#0 1200725390#1 1200725391#1 22850376#0 1200725389#1 -1200725389#1" id="route_2_22852231#0" />
   <vehicle depart="2" id="route_2_22852231#0_veh2" route="route_2_22852231#0" type="car" />
   <route edges="22852231#0 22852231#1 -1149808813 654405571#1 654405571#2 1237761233#1 -1237761233#1 1249027317 658655411#0 658655412#7 658655412#8" id="route_3_22852231#0" />
   <vehicle depart="3" id="route_3_22852231#0_veh3" route="route_3_22852231#0" type="car" />
   <route edges="22852231#0 22852231#1 -1149808813 654405571#1 654405571#2 1249027317" id="route_4_22852231#0" />
   <vehicle depart="4" id="route_4_22852231#0_veh4" route="route_4_22852231#0" type="car" />
   <route edges="22852231#0 22852231#1 -1149808813 654405571#1 654405571#2 1249027317 658655411#0 658655411#1 1219443082#1 1219443083" id="route_5_22852231#0" />
   <vehicle depart="5" id="route_5_22852231#0_veh5" route="route_5_22852231#0" type="car" />
   <route edges="22852231#0 22852231#1 -1149808813 654405571#1 654405571#2 1249027317 658655411#0 658655411#1 658655411#2" id="route_6_22852231#0" />
   <vehicle depart="6" id="route_6_22852231#0_veh6" route="route_6_22852231#0" type="car" />
   <route edges="22852231#0 22852231#1 -1149808813 654405571#1 654405571#2 1200725390#0 1200725390#1 1200725391#1 22850376#0 22850376#1" id="route_7_22852231#0" />
   <vehicle depart="7" id="route_7_22852231#0_veh7" route="route_7_22852231#0" type="car" />
   <route edges="22852231#0 22852231#1 -1149808813 654405571#1 654405571#2 1237761233#1" id="route_8_22852231#0" />
   <vehicle depart="8" id="route_8_22852231#0_veh8" route="route_8_22852231#0" type="car" />
   <route edges="22852231#0 22852231#1 -1149808813 654405571#1 654405571#2 1200725390#0 1200725390#1 1200725391#1 22850376#0 22850376#1 -22850376#1" id="route_9_22852231#0" />
   <vehicle depart="9" id="route_9_22852231#0_veh9" route="route_9_22852231#0" type="car" />
   <route edges="22852231#0 22852231#1 -1149808813 654405571#1 654405571#2 1200725390#0 1200725390#1 1200725391#1 1200725391#2 22850107#1" id="route_10_22852231#0" />
   <vehicle depart="10" id="route_10_22852231#0_veh10" route="route_10_22852231#0" type="car" />
   <route edges="22852231#1 -1149808813 654405571#1 654405571#2 1200725390#0 1200725390#1 1200725391#1 1200725391#2 22850107#1 22850107#2 -22850107#2" id="route_0_22852231#1" />
   <vehicle depart="11" id="route_0_22852231#1_veh11" route="route_0_22852231#1" type="car" />
   <route edges="22852231#1 -1149808813 654405571#1 654405571#2 1237761233#1 1133675674#0 1133675674#1 1133675674#2 1133675674#3 1133675674#4" id="route_1_22852231#1" />
   <vehicle depart="12" id="route_1_22852231#1_veh12" route="route_1_22852231#1" type="car" />
   <route edges="22852231#1 -1149808813 654405571#1 654405571#2 1200725390#0 1200725390#1 1200725391#1 22850376#0 1200725389#1 22850107#7" id="route_2_22852231#1" />
   <vehicle depart="13" id="route_2_22852231#1_veh13" route="route_2_22852231#1" type="car" />
   <route edges="22852231#1 -1149808813 654405571#1 654405571#2 1249027317 658655411#0 658655411#1 658655412#5 658655412#6" id="route_3_22852231#1" />
   <vehicle depart="14" id="route_3_22852231#1_veh14" route="route_3_22852231#1" type="car" />
   <route edges="22852231#1 -1149808813 654405571#1 654405571#2 1200725390#0 1200725390#1 1239434258#2 1239434258#3 1285590647#0 22850376#3 -22850376#3" id="route_4_22852231#1" />
   <vehicle depart="15" id="route_4_22852231#1_veh15" route="route_4_22852231#1" type="car" />
   <route edges="22852231#1 -1149808813 654405571#1 654405571#2 1200725390#0 1200725390#1 1200725391#1 22850376#0 22850376#1 -22850376#1" id="route_5_22852231#1" />
   <vehicle depart="16" id="route_5_22852231#1_veh16" route="route_5_22852231#1" type="car" />
   <route edges="22852231#1 -1149808813 654405571#1 654405571#2 1249027317 658655411#0 658655411#1 658655411#2 658655411#3 658655412#4 1219443082#1" id="route_6_22852231#1" />
   <vehicle depart="17" id="route_6_22852231#1_veh17" route="route_6_22852231#1" type="car" />
   <route edges="22852231#1 -1149808813 654405571#1 654405571#2 1237761233#1 -1237761233#1 1249027317 658655411#0" id="route_7_22852231#1" />
   <vehicle depart="18" id="route_7_22852231#1_veh18" route="route_7_22852231#1" type="car" />
   <route edges="22852231#1 -1149808813 654405571#1 654405571#2 1237761233#1 -1237761233#1 1200725390#0 1200725390#1 1239434258#2 1239434258#3 1236044645" id="route_8_22852231#1" />
   <vehicle depart="19" id="route_8_22852231#1_veh19" route="route_8_22852231#1" type="car" />
   <route edges="22852231#1 -1149808813 654405571#1 654405571#2 1200725390#0 1200725390#1 1239434258#2" id="route_9_22852231#1" />
   <vehicle depart="20" id="route_9_22852231#1_veh20" route="route_9_22852231#1" type="car" />
   <route edges="22852231#1 -1149808813 654405571#1 654405571#2 1237761233#1 -1237761233#1 1245531541 1138273335#0" id="route_10_22852231#1" />
   <vehicle depart="21" id="route_10_22852231#1_veh21" route="route_10_22852231#1" type="car" />
   <route edges="-22850187#0 22850187#0 -794831506#0 794831506#0 22850187#1 22850196#0 -39220085#2 -39220085#1 -22850194#1 -22850187#1 794831506#1" id="route_0_-22850187#0" />
   <vehicle depart="22" id="route_0_-22850187#0_veh22" route="route_0_-22850187#0" type="car" />
   <route edges="-22850187#0 22850187#0 22850187#1 22850196#0 22850196#1 22850088#2 -938741295#0 938741295#0 -22850088#2 -22850088#1 -22850088#0" id="route_1_-22850187#0" />
   <vehicle depart="23" id="route_1_-22850187#0_veh23" route="route_1_-22850187#0" type="car" />
   <route edges="-22850187#0 -220308833#2 1208009560 -1208009560 -220308833#1 -220308833#0 22850287 39220085#0 39220085#1 39220085#2 22850196#1" id="route_2_-22850187#0" />
   <vehicle depart="24" id="route_2_-22850187#0_veh24" route="route_2_-22850187#0" type="car" />
   <route edges="-22850187#0 22850187#0 794831506#1 -794831506#1 22850187#1 -22850194#0 22850194#0 22850196#0 22850196#1 22850196#2 658655411#4" id="route_3_-22850187#0" />
   <vehicle depart="25" id="route_3_-22850187#0_veh25" route="route_3_-22850187#0" type="car" />
   <route edges="-22850187#0 22850187#0 22850187#1 22850194#1 39220085#1 938741295#0 -22850088#2 -22850088#1 993557579 39220085#4" id="route_4_-22850187#0" />
   <vehicle depart="26" id="route_4_-22850187#0_veh26" route="route_4_-22850187#0" type="car" />
   <route edges="-22850187#0 220308833#3 -22850313#2 -22850313#1 22850194#0 22850196#0 22850196#1 -22850088#1 22850088#1 -22850196#1 -39220085#2" id="route_5_-22850187#0" />
   <vehicle depart="27" id="route_5_-22850187#0_veh27" route="route_5_-22850187#0" type="car" />
   <route edges="-22850187#0 22850187#0 22850187#1 22850196#0 39220085#3 -993557579 -22850088#0 -1177156540 1177156540 22850088#0 993557579" id="route_6_-22850187#0" />
   <vehicle depart="28" id="route_6_-22850187#0_veh28" route="route_6_-22850187#0" type="car" />
   <route edges="-22850187#0 -220308833#2 220308833#2 22850187#0 22850187#1 22850196#0 22850196#1 -22850088#1 993557579 -993557579 22850088#1" id="route_7_-22850187#0" />
   <vehicle depart="29" id="route_7_-22850187#0_veh29" route="route_7_-22850187#0" type="car" />
   <route edges="-22850187#0 220308833#3 -220308833#3 -220308833#2 -220308833#1 22850232 -22850232 -220308833#0 22850287 39220085#0" id="route_8_-22850187#0" />
   <vehicle depart="30" id="route_8_-22850187#0_veh30" route="route_8_-22850187#0" type="car" />
   <route edges="-22850187#0 220308833#3 -220308833#3 22850187#0 22850187#1 22850194#1 -22850194#1 -22850194#0 -22850313#0 -1219443083 1219443083" id="route_9_-22850187#0" />
   <vehicle depart="31" id="route_9_-22850187#0_veh31" route="route_9_-22850187#0" type="car" />
   <route edges="-22850187#0 220308833#3 220308833#4 220308833#5 -1123855693 1133675674#6 -1133675674#6 1123855693 220308833#6 -220308833#6 -220308833#5" id="route_10_-22850187#0" />
   <vehicle depart="32" id="route_10_-22850187#0_veh32" route="route_10_-22850187#0" type="car" />
   <route edges="-22850187#0 -220308833#2 220308833#2 22850187#0 22850187#1 22850196#0 39220085#3 -993557579 993557579 39220085#4 39220085#5" id="route_11_-22850187#0" />
   <vehicle depart="33" id="route_11_-22850187#0_veh33" route="route_11_-22850187#0" type="car" />
   <route edges="-22850187#0 -220308833#2 -220308833#1 -220308833#0 22850287 39220085#0 -22850194#1 -22850194#0 -22850313#0 1219443084 -1219443084" id="route_12_-22850187#0" />
   <vehicle depart="34" id="route_12_-22850187#0_veh34" route="route_12_-22850187#0" type="car" />
   <route edges="-22850187#0 -220308833#2 220308833#2 22850187#0 22850187#1 22850194#1 39220085#1 938741295#0 -22850088#2 22850196#2 658655411#4" id="route_13_-22850187#0" />
   <vehicle depart="35" id="route_13_-22850187#0_veh35" route="route_13_-22850187#0" type="car" />
   <route edges="-22850187#0 22850187#0 22850187#1 22850196#0 -39220085#2 39220085#2 39220085#3 39220085#4 39220085#5 22850313#0 22850194#0" id="route_14_-22850187#0" />
   <vehicle depart="36" id="route_14_-22850187#0_veh36" route="route_14_-22850187#0" type="car" />
   <route edges="-22850187#0 22850187#0 22850187#1 22850196#0 22850196#1 22850196#2 -22850196#2 -22850196#1 39220085#3 -993557579 993557579" id="route_15_-22850187#0" />
   <vehicle depart="37" id="route_15_-22850187#0_veh37" route="route_15_-22850187#0" type="car" />
   <route edges="-22850187#0 -220308833#2 220308833#2 22850187#0 22850187#1 22850194#1 -39220085#0 1177154781#0 -22850285 993557580" id="route_16_-22850187#0" />
   <vehicle depart="38" id="route_16_-22850187#0_veh38" route="route_16_-22850187#0" type="car" />
   <route edges="-22850187#0 22850187#0 22850187#1 22850194#1 -22850194#1 22850196#0 22850196#1 22850088#2 -938741295#0" id="route_17_-22850187#0" />
   <vehicle depart="39" id="route_17_-22850187#0_veh39" route="route_17_-22850187#0" type="car" />
   <route edges="-22850187#0 22850187#0 22850187#1 22850194#1 -39220085#0 -924453769#1 -924453769#0 1236044674#1 1234788292#0 1234788292#1 1234788292#2" id="route_18_-22850187#0" />
   <vehicle depart="40" id="route_18_-22850187#0_veh40" route="route_18_-22850187#0" type="car" />
   <route edges="-22850187#0 22850187#0 22850187#1 -22850194#0 -22850313#0 -39220085#5 -39220085#4 39220085#4 39220085#5" id="route_19_-22850187#0" />
   <vehicle depart="41" id="route_19_-22850187#0_veh41" route="route_19_-22850187#0" type="car" />
   <route edges="-22850187#0 22850187#0 -794831506#0 794831506#0 22850187#1 22850194#1 -22850194#1 22850196#0 -22850196#0 -22850194#0 22850313#1" id="route_20_-22850187#0" />
   <vehicle depart="42" id="route_20_-22850187#0_veh42" route="route_20_-22850187#0" type="car" />
   <route edges="-22850187#0 22850187#0 22850187#1 -22850194#0 -22850313#0 -39220085#5 -39220085#4 -993557579 993557579 39220085#4" id="route_21_-22850187#0" />
   <vehicle depart="43" id="route_21_-22850187#0_veh43" route="route_21_-22850187#0" type="car" />
   <route edges="-22850187#0 22850187#0 -794831506#0 794831506#0 22850187#1 -22850194#0" id="route_22_-22850187#0" />
   <vehicle depart="44" id="route_22_-22850187#0_veh44" route="route_22_-22850187#0" type="car" />
   <route edges="-22850187#0 220308833#3 -220308833#3 -220308833#2 1208009560 -1208009560 220308833#2 22850187#0 22850187#1 22850194#1 -22850194#1" id="route_23_-22850187#0" />
   <vehicle depart="45" id="route_23_-22850187#0_veh45" route="route_23_-22850187#0" type="car" />
   <route edges="-22850187#1 -794831506#0 794831506#0 22850187#1 -22850194#0 -22850313#0 -1219443083 1219443083 22850313#0 22850313#1 22850313#2" id="route_0_-22850187#1" />
   <vehicle depart="46" id="route_0_-22850187#1_veh46" route="route_0_-22850187#1" type="car" />
   <route edges="-22850187#1 -22850187#0 22850187#0 22850187#1 -22850194#0 -22850313#0 -1219443083 1219443083 -39220085#5 -39220085#4 39220085#4" id="route_1_-22850187#1" />
   <vehicle depart="47" id="route_1_-22850187#1_veh47" route="route_1_-22850187#1" type="car" />
   <route edges="-22850187#1 22850187#1 22850196#0 39220085#3 -39220085#3 22850196#1 -22850196#1 -22850196#0 -22850194#0 22850194#0" id="route_2_-22850187#1" />
   <vehicle depart="48" id="route_2_-22850187#1_veh48" route="route_2_-22850187#1" type="car" />
   <route edges="-22850187#1 -794831506#0 794831506#0 -22850187#0 -220308833#2 -220308833#1 -220308833#0 22850287 39220085#0 -22850194#1 22850194#1" id="route_3_-22850187#1" />
   <vehicle depart="49" id="route_3_-22850187#1_veh49" route="route_3_-22850187#1" type="car" />
   <route edges="-22850187#1 -794831506#0 794831506#0 22850187#1 -22850194#0 22850194#0 22850194#1 39220085#1 938741295#0 938741295#1 658655411#7" id="route_4_-22850187#1" />
   <vehicle depart="50" id="route_4_-22850187#1_veh50" route="route_4_-22850187#1" type="car" />
   <route edges="-22850187#1 22850187#1 22850196#0 22850196#1 22850196#2 658655411#4 658655411#5 701012912#1 211658467 658655411#6 -938741295#1" id="route_5_-22850187#1" />
   <vehicle depart="51" id="route_5_-22850187#1_veh51" route="route_5_-22850187#1" type="car" />
   <route edges="-22850187#1 22850187#1 22850194#1 39220085#1 938741295#0 -22850088#2 -22850196#1 -22850196#0 -22850194#0 -22850313#0 1219443084" id="route_6_-22850187#1" />
   <vehicle depart="52" id="route_6_-22850187#1_veh52" route="route_6_-22850187#1" type="car" />
   <route edges="-22850187#1 794831506#1 -794831506#1 22850187#1 22850194#1 39220085#1 938741295#0 22850088#3 1210675283" id="route_7_-22850187#1" />
   <vehicle depart="53" id="route_7_-22850187#1_veh53" route="route_7_-22850187#1" type="car" />
   <route edges="-22850187#1 22850187#1 -22850194#0 22850194#0 22850196#0 22850196#1 -22850196#1 -39220085#2 -39220085#1 -22850194#1" id="route_8_-22850187#1" />
   <vehicle depart="54" id="route_8_-22850187#1_veh54" route="route_8_-22850187#1" type="car" />
   <route edges="-22850187#1 22850187#1 22850196#0 22850196#1 -22850088#1 22850088#1 22850088#2 -22850088#2 -22850196#1 -22850196#0" id="route_9_-22850187#1" />
   <vehicle depart="55" id="route_9_-22850187#1_veh55" route="route_9_-22850187#1" type="car" />
   <route edges="-22850187#1 22850187#1 -22850194#0 -22850313#0 -1219443083 -22850270 22850270 1219443083 22850313#0 22850194#0 22850194#1" id="route_10_-22850187#1" />
   <vehicle depart="56" id="route_10_-22850187#1_veh56" route="route_10_-22850187#1" type="car" />
   <route edges="-22850187#1 -22850187#0 22850187#0 22850187#1 22850196#0 39220085#3 39220085#4 39220085#5 22850313#0 22850194#0 22850194#1" id="route_11_-22850187#1" />
   <vehicle depart="57" id="route_11_-22850187#1_veh57" route="route_11_-22850187#1" type="car" />
   <route edges="-22850187#1 22850187#1 22850196#0 39220085#3 -39220085#3 -22850196#0 22850194#1 39220085#1 938741295#0 -22850088#2 22850088#2" id="route_12_-22850187#1" />
   <vehicle depart="58" id="route_12_-22850187#1_veh58" route="route_12_-22850187#1" type="car" />
   <route edges="-22850187#1 22850187#1 22850196#0 22850196#1 -22850196#1 39220085#3 701040455#0 701040455#1 701040455#2 -701040455#2 1328988263" id="route_13_-22850187#1" />
   <vehicle depart="59" id="route_13_-22850187#1_veh59" route="route_13_-22850187#1" type="car" />
   <route edges="-22850187#1 22850187#1 22850196#0 -22850196#0 -22850194#0 -22850313#0 -1219443083 -1219443082#1 1219443082#1 1219443083 22850313#0" id="route_14_-22850187#1" />
   <vehicle depart="60" id="route_14_-22850187#1_veh60" route="route_14_-22850187#1" type="car" />
   <route edges="-22850187#1 22850187#1 22850196#0 22850196#1 -22850196#1 39220085#3 39220085#4 39220085#5 22850313#0 22850194#0" id="route_15_-22850187#1" />
   <vehicle depart="61" id="route_15_-22850187#1_veh61" route="route_15_-22850187#1" type="car" />
   <route edges="-22850187#1 -22850187#0 -220308833#2 -220308833#1 220308833#1 220308833#2 22850187#0 22850187#1 -22850194#0 -22850313#0 -39220085#5" id="route_16_-22850187#1" />
   <vehicle depart="62" id="route_16_-22850187#1_veh62" route="route_16_-22850187#1" type="car" />
   <route edges="-22850187#1 22850187#1 -22850194#0 22850194#0 22850196#0 -39220085#2 39220085#2 22850196#1 -22850088#1 -22850088#0 -1177156540" id="route_17_-22850187#1" />
   <vehicle depart="63" id="route_17_-22850187#1_veh63" route="route_17_-22850187#1" type="car" />
   <route edges="-22850187#1 -22850187#0 22850187#0 794831506#1 -794831506#1 22850187#1 22850196#0 -22850196#0" id="route_18_-22850187#1" />
   <vehicle depart="64" id="route_18_-22850187#1_veh64" route="route_18_-22850187#1" type="car" />
   <route edges="-22850187#1 22850187#1 -22850194#0 -22850313#0 -1219443083 -1219443082#1 658655412#5 658655412#6 658655411#1 658655411#2 658655411#3" id="route_19_-22850187#1" />
   <vehicle depart="65" id="route_19_-22850187#1_veh65" route="route_19_-22850187#1" type="car" />
   <route edges="-22850187#1 22850187#1 22850196#0 -22850196#0 -22850194#0 -22850313#0 -39220085#5" id="route_20_-22850187#1" />
   <vehicle depart="66" id="route_20_-22850187#1_veh66" route="route_20_-22850187#1" type="car" />
   <route edges="-22850187#1 22850187#1 22850196#0 22850196#1 22850196#2 658655412#4 658655411#2 658655411#3 658655411#4 658655411#5 701012912#1" id="route_21_-22850187#1" />
   <vehicle depart="67" id="route_21_-22850187#1_veh67" route="route_21_-22850187#1" type="car" />
   <route edges="-22850187#1 -794831506#0 794831506#0 22850187#1 22850196#0 -39220085#2 938741295#0 -938741295#0 39220085#2" id="route_22_-22850187#1" />
   <vehicle depart="68" id="route_22_-22850187#1_veh68" route="route_22_-22850187#1" type="car" />
   <route edges="-22850187#1 -794831506#0 794831506#0 22850187#1 22850194#1 39220085#1 39220085#2 39220085#3 701040455#0" id="route_23_-22850187#1" />
   <vehicle depart="69" id="route_23_-22850187#1_veh69" route="route_23_-22850187#1" type="car" />
   <route edges="22850187#0 -794831506#0 794831506#0 22850187#1 22850196#0 22850196#1 -22850196#1 -39220085#2 39220085#2 -22850196#0 22850194#1" id="route_0_22850187#0" />
   <vehicle depart="70" id="route_0_22850187#0_veh70" route="route_0_22850187#0" type="car" />
   <route edges="22850187#0 -794831506#0 794831506#0 794831506#1 -794831506#1 22850187#1 -22850194#0 -22850313#0 22850313#0 22850194#0" id="route_1_22850187#0" />
   <vehicle depart="71" id="route_1_22850187#0_veh71" route="route_1_22850187#0" type="car" />
   <route edges="22850187#0 22850187#1 22850194#1 39220085#1 -39220085#1 -22850194#1 22850196#0 39220085#3 39220085#4" id="route_2_22850187#0" />
   <vehicle depart="72" id="route_2_22850187#0_veh72" route="route_2_22850187#0" type="car" />
   <route edges="22850187#0 794831506#1 -794831506#1 22850187#1 22850196#0 39220085#3 -39220085#3 22850196#1 -22850088#1 993557579 39220085#4" id="route_3_22850187#0" />
   <vehicle depart="73" id="route_3_22850187#0_veh73" route="route_3_22850187#0" type="car" />
   <route edges="22850187#0 22850187#1 22850196#0 22850196#1 22850088#2 -938741295#0 938741295#0 -22850088#2 22850196#2 658655411#4 658655411#5" id="route_4_22850187#0" />
   <vehicle depart="74" id="route_4_22850187#0_veh74" route="route_4_22850187#0" type="car" />
   <route edges="22850187#0 -794831506#0 794831506#0 22850187#1 -22850194#0 22850194#0 22850194#1 -39220085#0 39220085#0 39220085#1 -39220085#1" id="route_5_22850187#0" />
   <vehicle depart="75" id="route_5_22850187#0_veh75" route="route_5_22850187#0" type="car" />
   <route edges="22850187#0 22850187#1 22850194#1 -39220085#0 39220085#0 39220085#1 39220085#2 22850196#1 -22850196#1 -22850196#0 -22850194#0" id="route_6_22850187#0" />
   <vehicle depart="76" id="route_6_22850187#0_veh76" route="route_6_22850187#0" type="car" />
   <route edges="22850187#0 22850187#1 -22850194#0 -22850313#0 -1219443083 -1219443082#1 658655411#2 658655411#3 658655412#4 1219443082#1 1219443083" id="route_7_22850187#0" />
   <vehicle depart="77" id="route_7_22850187#0_veh77" route="route_7_22850187#0" type="car" />
   <route edges="22850187#0 22850187#1 22850196#0 -22850196#0 -22850194#0 -22850313#0 -39220085#5 -39220085#4 701040455#0 -701040455#0 39220085#4" id="route_8_22850187#0" />
   <vehicle depart="78" id="route_8_22850187#0_veh78" route="route_8_22850187#0" type="car" />
   <route edges="22850187#0 22850187#1 -22850194#0 -22850313#0 -1219443083 1177156540 22850088#0 22850088#1 22850088#2 -938741295#0 938741295#0" id="route_9_22850187#0" />
   <vehicle depart="79" id="route_9_22850187#0_veh79" route="route_9_22850187#0" type="car" />
   <route edges="22850187#0 22850187#1 -22850194#0 22850194#0 22850196#0 -39220085#2 39220085#2 39220085#3 -39220085#3 22850196#1" id="route_10_22850187#0" />
   <vehicle depart="80" id="route_10_22850187#0_veh80" route="route_10_22850187#0" type="car" />
   <route edges="22850187#0 22850187#1 22850194#1 -39220085#0 1177154781#0 1177154781#1 -1177154781#1 -1177154781#0 -924453769#1" id="route_11_22850187#0" />
   <vehicle depart="81" id="route_11_22850187#0_veh81" route="route_11_22850187#0" type="car" />
   <route edges="22850187#0 22850187#1 22850196#0 39220085#3 -39220085#3 22850196#1 22850088#2 -938741295#0 -39220085#1" id="route_12_22850187#0" />
   <vehicle depart="82" id="route_12_22850187#0_veh82" route="route_12_22850187#0" type="car" />
   <route edges="22850187#0 22850187#1 -22850194#0 -22850313#0 -1219443083 -1219443082#1 658655411#2 658655411#3 658655412#4 658655412#5" id="route_13_22850187#0" />
   <vehicle depart="83" id="route_13_22850187#0_veh83" route="route_13_22850187#0" type="car" />
   <route edges="22850187#0 22850187#1 -22850194#0 -22850313#0 22850313#0 22850194#0 22850194#1 -22850194#1 -22850187#1 -794831506#0 794831506#0" id="route_14_22850187#0" />
   <vehicle depart="84" id="route_14_22850187#0_veh84" route="route_14_22850187#0" type="car" />
   <route edges="22850187#0 22850187#1 22850196#0 -39220085#2 938741295#0 -22850088#2 -22850196#1 22850196#1 22850088#2 22850088#3 1210675283" id="route_15_22850187#0" />
   <vehicle depart="85" id="route_15_22850187#0_veh85" route="route_15_22850187#0" type="car" />
   <route edges="22850187#0 22850187#1 22850194#1 -22850194#1 22850196#0 22850196#1 22850196#2 -22850196#2 22850088#2 938741295#1" id="route_16_22850187#0" />
   <vehicle depart="86" id="route_16_22850187#0_veh86" route="route_16_22850187#0" type="car" />
   <route edges="22850187#0 22850187#1 22850196#0 39220085#3 -993557579 22850088#1 22850196#2 658655412#4 658655411#2 -211658612#3 211658572" id="route_17_22850187#0" />
   <vehicle depart="87" id="route_17_22850187#0_veh87" route="route_17_22850187#0" type="car" />
   <route edges="22850187#0 22850187#1 22850194#1 -22850194#1 22850196#0 22850196#1 -22850196#1 39220085#3 -39220085#3" id="route_18_22850187#0" />
   <vehicle depart="88" id="route_18_22850187#0_veh88" route="route_18_22850187#0" type="car" />
   <route edges="22850187#0 -794831506#0 794831506#0 22850187#1 22850196#0 22850196#1 22850196#2 -22850196#2 -22850196#1 -39220085#2" id="route_19_22850187#0" />
   <vehicle depart="89" id="route_19_22850187#0_veh89" route="route_19_22850187#0" type="car" />
   <route edges="22850187#0 22850187#1 -22850194#0 22850313#1 22850313#2 -22850313#2 -22850313#1 22850194#0 -22850187#1 -794831506#0 794831506#0" id="route_20_22850187#0" />
   <vehicle depart="90" id="route_20_22850187#0_veh90" route="route_20_22850187#0" type="car" />
   <route edges="22850187#0 22850187#1 22850194#1 39220085#1 938741295#0 -22850088#2 22850196#2 658655412#4 1219443082#1 -22850270" id="route_21_22850187#0" />
   <vehicle depart="91" id="route_21_22850187#0_veh91" route="route_21_22850187#0" type="car" />
   <route edges="22850187#0 22850187#1 22850196#0 22850196#1 22850088#2 -22850088#2 -22850088#1 22850088#1 -22850196#1 39220085#3 701040455#0" id="route_22_22850187#0" />
   <vehicle depart="92" id="route_22_22850187#0_veh92" route="route_22_22850187#0" type="car" />
   <route edges="22850187#0 22850187#1 -22850194#0 22850194#0 22850194#1 -39220085#0 1177154781#0 1177154781#1 658655412#0 658655412#1" id="route_23_22850187#0" />
   <vehicle depart="93" id="route_23_22850187#0_veh93" route="route_23_22850187#0" type="car" />
   <route edges="22850187#1 22850196#0 -39220085#2 39220085#2 22850196#1 -22850196#1 -22850196#0 -22850187#1 -794831506#0 794831506#0 -22850187#0" id="route_0_22850187#1" />
   <vehicle depart="94" id="route_0_22850187#1_veh94" route="route_0_22850187#1" type="car" />
   <route edges="22850187#1 22850196#0 22850196#1 -22850088#1 22850088#1 22850088#2 -22850088#2 22850196#2 658655412#4 1219443082#1" id="route_1_22850187#1" />
   <vehicle depart="95" id="route_1_22850187#1_veh95" route="route_1_22850187#1" type="car" />
   <route edges="22850187#1 22850196#0 -22850196#0 -22850187#1 -22850187#0 220308833#3 220308833#4 220308833#5 220308833#6 1237761220" id="route_2_22850187#1" />
   <vehicle depart="96" id="route_2_22850187#1_veh96" route="route_2_22850187#1" type="car" />
   <route edges="22850187#1 22850196#0 -22850196#0 -22850187#1 -22850187#0 -220308833#2 1208009560 -1208009560 -220308833#1 22850232 -22850232" id="route_3_22850187#1" />
   <vehicle depart="97" id="route_3_22850187#1_veh97" route="route_3_22850187#1" type="car" />
   <route edges="22850187#1 22850196#0 -22850196#0 -22850194#0 22850194#0 22850194#1 -39220085#0 -924453769#1 -924453769#0 1236044674#1 1236044643#1" id="route_4_22850187#1" />
   <vehicle depart="98" id="route_4_22850187#1_veh98" route="route_4_22850187#1" type="car" />
   <route edges="22850187#1 -22850194#0 -22850313#0 22850313#0 22850313#1 22850313#2 -220308833#3 -220308833#2 220308833#2 22850187#0" id="route_5_22850187#1" />
   <vehicle depart="99" id="route_5_22850187#1_veh99" route="route_5_22850187#1" type="car" />
   <route edges="22850187#1 -22850194#0 -22850313#0 22850313#0 22850194#0 22850196#0 39220085#3 -993557579 993557579 701040455#0 -701040455#0" id="route_6_22850187#1" />
   <vehicle depart="100" id="route_6_22850187#1_veh100" route="route_6_22850187#1" type="car" />
   <route edges="22850187#1 22850196#0 22850196#1 22850088#2 -22850088#2 -22850088#1 22850088#1 22850196#2 658655411#4 658655411#5" id="route_7_22850187#1" />
   <vehicle depart="101" id="route_7_22850187#1_veh101" route="route_7_22850187#1" type="car" />
   <route edges="22850187#1 22850196#0 39220085#3 -39220085#3 22850196#1 22850088#2 938741295#1 658655412#2 701012912#1 -211658601#1" id="route_8_22850187#1" />
   <vehicle depart="102" id="route_8_22850187#1_veh102" route="route_8_22850187#1" type="car" />
   <route edges="22850187#1 -22850194#0 22850194#0 22850196#0 39220085#3 -39220085#3 22850196#1 22850088#2 -22850088#2 22850196#2" id="route_9_22850187#1" />
   <vehicle depart="103" id="route_9_22850187#1_veh103" route="route_9_22850187#1" type="car" />
   <route edges="22850187#1 22850196#0 22850196#1 22850088#2 -22850088#2 -22850196#1 -22850196#0 22850194#1 39220085#1" id="route_10_22850187#1" />
   <vehicle depart="104" id="route_10_22850187#1_veh104" route="route_10_22850187#1" type="car" />
   <route edges="22850187#1 22850196#0 -39220085#2 39220085#2 22850196#1 -22850196#1 -22850196#0 22850194#1 -22850194#1 -22850194#0" id="route_11_22850187#1" />
   <vehicle depart="105" id="route_11_22850187#1_veh105" route="route_11_22850187#1" type="car" />
   <route edges="22850187#1 22850196#0 22850196#1 -22850088#1 22850088#1 22850088#2 -22850088#2 -22850196#1 -39220085#2 938741295#0" id="route_12_22850187#1" />
   <vehicle depart="106" id="route_12_22850187#1_veh106" route="route_12_22850187#1" type="car" />
   <route edges="22850187#1 22850194#1 -22850194#1 22850196#0 -39220085#2 938741295#0 -22850088#2 -22850088#1 -22850088#0 -1177156540 1177156540" id="route_13_22850187#1" />
   <vehicle depart="107" id="route_13_22850187#1_veh107" route="route_13_22850187#1" type="car" />
   <route edges="22850187#1 22850196#0 22850196#1 -22850088#1 22850088#1 -22850196#1 -39220085#2 938741295#0 938741295#1 -938741295#1 22850088#3" id="route_14_22850187#1" />
   <vehicle depart="108" id="route_14_22850187#1_veh108" route="route_14_22850187#1" type="car" />
   <route edges="22850187#1 22850194#1 -22850194#1 22850196#0 39220085#3 39220085#4 39220085#5 22850313#0 -22850313#0 -39220085#5" id="route_15_22850187#1" />
   <vehicle depart="109" id="route_15_22850187#1_veh109" route="route_15_22850187#1" type="car" />
   <route edges="22850187#1 -22850187#1 -22850187#0 220308833#3 -220308833#3 -220308833#2 -220308833#1 -220308833#0 22850287 -924453769#1 -924453769#0" id="route_16_22850187#1" />
   <vehicle depart="110" id="route_16_22850187#1_veh110" route="route_16_22850187#1" type="car" />
   <route edges="22850187#1 22850194#1 39220085#1 39220085#2 -22850196#0 22850196#0 39220085#3 701040455#0 701040455#1 701040455#2 -701040455#2" id="route_17_22850187#1" />
   <vehicle depart="111" id="route_17_22850187#1_veh111" route="route_17_22850187#1" type="car" />
   <route edges="22850187#1 22850194#1 -22850194#1 -22850194#0 -22850313#0 1219443084 -1219443084 -1219443083 -1219443082#1 658655412#5" id="route_18_22850187#1" />
   <vehicle depart="112" id="route_18_22850187#1_veh112" route="route_18_22850187#1" type="car" />
   <route edges="22850187#1 22850196#0 22850196#1 -22850196#1 -39220085#2 -39220085#1 39220085#1 938741295#0 938741295#1 -938741295#1" id="route_19_22850187#1" />
   <vehicle depart="113" id="route_19_22850187#1_veh113" route="route_19_22850187#1" type="car" />