<?xml version="1.0" encoding="UTF-8"?>

<!-- generated on 2024-11-29 15:46:57 by Eclipse SUMO netedit Version 1.21.0
<neteditConfiguration xmlns:xsi="http://www.w3.org/2001/XMLSchema-instance" xsi:noNamespaceSchemaLocation="http://sumo.dlr.de/xsd/neteditConfiguration.xsd">

    <input>
        <sumo-net-file value="D:\FYP\deeprl_signal_control_ma2c_ia2c\worli\data\worli.net.xml"/>
    </input>

    <output>
        <output-file value="D:\FYP\deeprl_signal_control_ma2c_ia2c\worli\data\worli.net.xml"/>
    </output>

    <processing>
        <geometry.min-radius.fix.railways value="false"/>
        <geometry.max-grade.fix value="false"/>
        <offset.disable-normalization value="true"/>
        <lefthand value="0"/>
    </processing>

    <junctions>
        <no-turnarounds value="true"/>
        <junctions.corner-detail value="5"/>
        <junctions.limit-turn-speed value="5.50"/>
        <rectangular-lane-cut value="0"/>
    </junctions>

    <pedestrian>
        <walkingareas value="0"/>
    </pedestrian>

</neteditConfiguration>
-->

<net version="1.20" junctionCornerDetail="5" limitTurnSpeed="5.50" xmlns:xsi="http://www.w3.org/2001/XMLSchema-instance" xsi:noNamespaceSchemaLocation="http://sumo.dlr.de/xsd/net_file.xsd">

    <location netOffset="-269542.15,-2101532.09" convBoundary="0.00,0.00,1323.53,2406.96" origBoundary="72.810795,18.911510,72.856581,19.058328" projParameter="+proj=utm +zone=43 +ellps=WGS84 +datum=WGS84 +units=m +no_defs"/>

    <type id="highway.footway" priority="1" numLanes="1" speed="2.78" allow="pedestrian" oneway="1" width="2.00"/>
    <type id="highway.living_street" priority="2" numLanes="1" speed="2.78" disallow="tram rail_urban rail rail_electric rail_fast ship container cable_car subway aircraft wheelchair scooter drone" oneway="0"/>
    <type id="highway.motorway" priority="14" numLanes="2" speed="39.44" allow="private emergency authority army vip passenger hov taxi bus coach delivery truck trailer motorcycle evehicle custom1 custom2" oneway="1"/>
    <type id="highway.path" priority="1" numLanes="1" speed="5.56" allow="pedestrian bicycle" oneway="0" width="2.00"/>
    <type id="highway.primary" priority="12" numLanes="2" speed="27.78" disallow="tram rail_urban rail rail_electric rail_fast ship container cable_car subway aircraft wheelchair scooter drone" oneway="0"/>
    <type id="highway.primary_link" priority="7" numLanes="1" speed="22.22" disallow="tram rail_urban rail rail_electric rail_fast ship container cable_car subway aircraft wheelchair scooter drone" oneway="0"/>
    <type id="highway.residential" priority="3" numLanes="1" speed="13.89" disallow="tram rail_urban rail rail_electric rail_fast ship container cable_car subway aircraft wheelchair scooter drone" oneway="0"/>
    <type id="highway.secondary" priority="11" numLanes="1" speed="27.78" disallow="tram rail_urban rail rail_electric rail_fast ship container cable_car subway aircraft wheelchair scooter drone" oneway="0"/>
    <type id="highway.tertiary" priority="10" numLanes="1" speed="22.22" disallow="tram rail_urban rail rail_electric rail_fast ship container cable_car subway aircraft wheelchair scooter drone" oneway="0"/>

    <edge id=":10271314344_0" function="internal">
        <lane id=":10271314344_0_0" index="0" disallow="tram rail_urban rail rail_electric rail_fast ship container cable_car subway aircraft wheelchair scooter drone" speed="27.78" length="5.51" shape="708.21,613.71 708.97,615.17 709.46,616.17 709.92,617.19 710.54,618.71"/>
    </edge>
    <edge id=":10271314344_1" function="internal">
        <lane id=":10271314344_1_0" index="0" disallow="tram rail_urban rail rail_electric rail_fast ship container cable_car subway aircraft wheelchair scooter drone" speed="6.94" length="4.95" shape="704.05,616.69 705.22,617.18 706.19,617.89 706.98,618.80 707.58,619.92"/>
    </edge>
    <edge id=":10277765343_0" function="internal">
        <lane id=":10277765343_0_0" index="0" disallow="tram rail_urban rail rail_electric rail_fast ship container cable_car subway aircraft wheelchair scooter drone" speed="17.21" length="19.31" shape="1141.14,551.18 1137.28,548.93 1132.52,546.64 1127.61,544.90 1123.30,544.32"/>
    </edge>
    <edge id=":10277765343_1" function="internal">
        <lane id=":10277765343_1_0" index="0" disallow="tram rail_urban rail rail_electric rail_fast ship container cable_car subway aircraft wheelchair scooter drone" speed="7.56" length="21.64" shape="1141.14,551.18 1135.37,546.67 1133.85,543.30 1136.59,541.08 1143.59,540.01"/>
    </edge>
    <edge id=":10277765343_2" function="internal">
        <lane id=":10277765343_2_0" index="0" disallow="tram rail_urban rail rail_electric rail_fast ship container cable_car subway aircraft wheelchair scooter drone" speed="3.66" length="4.69" shape="1141.14,551.18 1140.45,549.91 1140.47,549.01 1141.20,548.49 1142.64,548.34"/>
    </edge>
    <edge id=":10277765343_3" function="internal">
        <lane id=":10277765343_3_0" index="0" disallow="tram rail_urban rail rail_electric rail_fast ship container cable_car subway aircraft wheelchair scooter drone" speed="5.35" length="9.94" shape="1143.77,543.21 1140.55,543.70 1139.29,544.72 1139.98,546.26 1142.64,548.34"/>
    </edge>
    <edge id=":10277765343_4" function="internal">
        <lane id=":10277765343_4_0" index="0" disallow="tram rail_urban rail rail_electric rail_fast ship container cable_car subway aircraft wheelchair scooter drone" speed="27.78" length="20.50" shape="1143.77,543.21 1123.30,544.32"/>
    </edge>
    <edge id=":10277765343_5" function="internal">
        <lane id=":10277765343_5_0" index="0" disallow="tram rail_urban rail rail_electric rail_fast ship container cable_car subway aircraft wheelchair scooter drone" speed="3.65" length="1.44" shape="1143.77,543.21 1142.53,542.47"/>
    </edge>
    <edge id=":10277765343_9" function="internal">
        <lane id=":10277765343_9_0" index="0" disallow="tram rail_urban rail rail_electric rail_fast ship container cable_car subway aircraft wheelchair scooter drone" speed="3.65" length="3.23" shape="1142.53,542.47 1142.08,541.70 1142.44,540.88 1143.59,540.01"/>
    </edge>
    <edge id=":10277765343_6" function="internal">
        <lane id=":10277765343_6_0" index="0" disallow="tram rail_urban rail rail_electric rail_fast ship container cable_car subway aircraft wheelchair scooter drone" speed="27.78" length="20.50" shape="1123.13,541.13 1143.59,540.01"/>
    </edge>
    <edge id=":10277765343_7" function="internal">
        <lane id=":10277765343_7_0" index="0" disallow="tram rail_urban rail rail_electric rail_fast ship container cable_car subway aircraft wheelchair scooter drone" speed="17.93" length="3.76" shape="1123.13,541.13 1126.85,541.64"/>
    </edge>
    <edge id=":10277765343_8" function="internal">
        <lane id=":10277765343_8_0" index="0" disallow="tram rail_urban rail rail_electric rail_fast ship container cable_car subway aircraft wheelchair scooter drone" speed="3.65" length="1.44" shape="1123.13,541.13 1124.37,541.86"/>
    </edge>
    <edge id=":10277765343_10" function="internal">
        <lane id=":10277765343_10_0" index="0" disallow="tram rail_urban rail rail_electric rail_fast ship container cable_car subway aircraft wheelchair scooter drone" speed="17.93" length="17.22" shape="1126.85,541.64 1127.69,541.76 1133.18,543.62 1138.52,546.03 1142.64,548.34"/>
    </edge>
    <edge id=":10277765343_11" function="internal">
        <lane id=":10277765343_11_0" index="0" disallow="tram rail_urban rail rail_electric rail_fast ship container cable_car subway aircraft wheelchair scooter drone" speed="3.65" length="3.23" shape="1124.37,541.86 1124.81,542.64 1124.46,543.46 1123.30,544.32"/>
    </edge>
    <edge id=":10277765345_0" function="internal">
        <lane id=":10277765345_0_0" index="0" disallow="tram rail_urban rail rail_electric rail_fast ship container cable_car subway aircraft wheelchair scooter drone" speed="11.52" length="14.09" shape="1155.09,564.44 1154.28,562.04 1152.48,559.54 1149.68,556.94 1145.90,554.24"/>
    </edge>
    <edge id=":10277765345_1" function="internal">
        <lane id=":10277765345_1_0" index="0" disallow="tram rail_urban rail rail_electric rail_fast ship container cable_car subway aircraft wheelchair scooter drone" speed="13.89" length="16.02" shape="1155.09,564.44 1152.96,548.56"/>
    </edge>
    <edge id=":10277765345_2" function="internal">
        <lane id=":10277765345_2_0" index="0" disallow="tram rail_urban rail rail_electric rail_fast ship container cable_car subway aircraft wheelchair scooter drone" speed="3.65" length="1.44" shape="1155.09,564.44 1155.73,563.15"/>
    </edge>
    <edge id=":10277765345_9" function="internal">
        <lane id=":10277765345_9_0" index="0" disallow="tram rail_urban rail rail_electric rail_fast ship container cable_car subway aircraft wheelchair scooter drone" speed="3.65" length="3.23" shape="1155.73,563.15 1156.47,562.64 1157.31,562.93 1158.26,564.02"/>
    </edge>
    <edge id=":10277765345_3" function="internal">
        <lane id=":10277765345_3_0" index="0" disallow="tram rail_urban rail rail_electric rail_fast ship container cable_car subway aircraft wheelchair scooter drone" speed="13.89" length="16.02" shape="1156.13,548.14 1158.26,564.02"/>
    </edge>
    <edge id=":10277765345_4" function="internal">
        <lane id=":10277765345_4_0" index="0" disallow="tram rail_urban rail rail_electric rail_fast ship container cable_car subway aircraft wheelchair scooter drone" speed="7.34" length="5.42" shape="1156.13,548.14 1156.19,553.56"/>
    </edge>
    <edge id=":10277765345_5" function="internal">
        <lane id=":10277765345_5_0" index="0" disallow="tram rail_urban rail rail_electric rail_fast ship container cable_car subway aircraft wheelchair scooter drone" speed="3.65" length="1.44" shape="1156.13,548.14 1155.50,549.43"/>
    </edge>
    <edge id=":10277765345_10" function="internal">
        <lane id=":10277765345_10_0" index="0" disallow="tram rail_urban rail rail_electric rail_fast ship container cable_car subway aircraft wheelchair scooter drone" speed="7.34" length="12.70" shape="1156.19,553.56 1156.19,553.72 1154.51,556.60 1151.07,556.77 1145.90,554.24"/>
    </edge>
    <edge id=":10277765345_11" function="internal">
        <lane id=":10277765345_11_0" index="0" disallow="tram rail_urban rail rail_electric rail_fast ship container cable_car subway aircraft wheelchair scooter drone" speed="3.65" length="3.23" shape="1155.50,549.43 1154.76,549.94 1153.91,549.65 1152.96,548.56"/>
    </edge>
    <edge id=":10277765345_6" function="internal">
        <lane id=":10277765345_6_0" index="0" disallow="tram rail_urban rail rail_electric rail_fast ship container cable_car subway aircraft wheelchair scooter drone" speed="5.46" length="9.29" shape="1147.63,551.55 1150.31,552.87 1152.10,552.82 1152.98,551.38 1152.96,548.56"/>
    </edge>
    <edge id=":10277765345_7" function="internal">
        <lane id=":10277765345_7_0" index="0" disallow="tram rail_urban rail rail_electric rail_fast ship container cable_car subway aircraft wheelchair scooter drone" speed="12.56" length="16.84" shape="1147.63,551.55 1151.97,554.69 1155.19,557.82 1157.29,560.93 1158.26,564.02"/>
    </edge>
    <edge id=":10277765345_8" function="internal">
        <lane id=":10277765345_8_0" index="0" disallow="tram rail_urban rail rail_electric rail_fast ship container cable_car subway aircraft wheelchair scooter drone" speed="3.65" length="4.67" shape="1147.63,551.55 1148.20,552.87 1148.11,553.76 1147.34,554.21 1145.90,554.24"/>
    </edge>
    <edge id=":10277765346_0" function="internal">
        <lane id=":10277765346_0_0" index="0" disallow="tram rail_urban rail rail_electric rail_fast ship container cable_car subway aircraft wheelchair scooter drone" speed="27.78" length="12.97" shape="674.09,520.25 667.92,508.85"/>
        <lane id=":10277765346_0_1" index="1" disallow="tram rail_urban rail rail_electric rail_fast ship container cable_car subway aircraft wheelchair scooter drone" speed="27.78" length="12.97" shape="676.90,518.73 670.73,507.33"/>
    </edge>
    <edge id=":10277765346_2" function="internal">
        <lane id=":10277765346_2_0" index="0" disallow="tram rail_urban rail rail_electric rail_fast ship container cable_car subway aircraft wheelchair scooter drone" speed="13.50" length="12.98" shape="679.58,515.72 675.55,514.43 672.59,513.58 670.21,512.08 667.92,508.85"/>
        <lane id=":10277765346_2_1" index="1" disallow="tram rail_urban rail rail_electric rail_fast ship container cable_car subway aircraft wheelchair scooter drone" speed="12.43" length="12.98" shape="680.76,512.74 677.34,511.71 674.77,511.13 672.70,509.99 670.73,507.33"/>
    </edge>
    <edge id=":10277765349_0" function="internal">
        <lane id=":10277765349_0_0" index="0" disallow="tram rail_urban rail rail_electric rail_fast ship container cable_car subway aircraft wheelchair scooter drone" speed="27.78" length="12.38" shape="710.97,507.28 706.60,518.87"/>
        <lane id=":10277765349_0_1" index="1" disallow="tram rail_urban rail rail_electric rail_fast ship container cable_car subway aircraft wheelchair scooter drone" speed="27.78" length="12.38" shape="707.98,506.15 703.61,517.74"/>
    </edge>
    <edge id=":10277765349_2" function="internal">
        <lane id=":10277765349_2_0" index="0" disallow="tram rail_urban rail rail_electric rail_fast ship container cable_car subway aircraft wheelchair scooter drone" speed="11.49" length="11.98" shape="707.98,506.15 706.69,509.44 705.45,511.63 703.61,513.25 700.53,514.87"/>
        <lane id=":10277765349_2_1" index="1" disallow="tram rail_urban rail rail_electric rail_fast ship container cable_car subway aircraft wheelchair scooter drone" speed="11.06" length="11.07" shape="707.98,506.15 706.49,508.83 704.68,510.08 702.32,510.82 699.19,511.97"/>
    </edge>
    <edge id=":10277765350_0" function="internal">
        <lane id=":10277765350_0_0" index="0" disallow="tram rail_urban rail rail_electric rail_fast ship container cable_car subway aircraft wheelchair scooter drone" speed="27.78" length="8.23" shape="714.63,599.82 711.37,592.27"/>
    </edge>
    <edge id=":10277765350_1" function="internal">
        <lane id=":10277765350_1_0" index="0" disallow="tram rail_urban rail rail_electric rail_fast ship container cable_car subway aircraft wheelchair scooter drone" speed="10.85" length="8.18" shape="714.63,599.82 713.95,597.60 714.04,595.96 714.61,594.29 715.36,591.96"/>
    </edge>
    <edge id=":10277765354_0" function="internal">
        <lane id=":10277765354_0_0" index="0" disallow="tram rail_urban rail rail_electric rail_fast ship container cable_car subway aircraft wheelchair scooter drone" speed="27.78" length="13.83" shape="741.41,566.09 727.59,566.88"/>
    </edge>
    <edge id=":10277765354_1" function="internal">
        <lane id=":10277765354_1_0" index="0" disallow="tram rail_urban rail rail_electric rail_fast ship container cable_car subway aircraft wheelchair scooter drone" speed="3.65" length="1.44" shape="741.41,566.09 740.16,565.36"/>
    </edge>
    <edge id=":10277765354_6" function="internal">
        <lane id=":10277765354_6_0" index="0" disallow="tram rail_urban rail rail_electric rail_fast ship container cable_car subway aircraft wheelchair scooter drone" speed="3.65" length="3.23" shape="740.16,565.36 739.72,564.58 740.07,563.76 741.22,562.90"/>
    </edge>
    <edge id=":10277765354_2" function="internal">
        <lane id=":10277765354_2_0" index="0" disallow="tram rail_urban rail rail_electric rail_fast ship container cable_car subway aircraft wheelchair scooter drone" speed="27.78" length="13.83" shape="727.41,563.69 741.22,562.90"/>
    </edge>
    <edge id=":10277765354_3" function="internal">
        <lane id=":10277765354_3_0" index="0" disallow="tram rail_urban rail rail_electric rail_fast ship container cable_car subway aircraft wheelchair scooter drone" speed="3.65" length="1.44" shape="727.41,563.69 728.66,564.42"/>
    </edge>
    <edge id=":10277765354_7" function="internal">
        <lane id=":10277765354_7_0" index="0" disallow="tram rail_urban rail rail_electric rail_fast ship container cable_car subway aircraft wheelchair scooter drone" speed="3.65" length="3.23" shape="728.66,564.42 729.10,565.19 728.75,566.02 727.59,566.88"/>
    </edge>
    <edge id=":10277765354_4" function="internal">
        <lane id=":10277765354_4_0" index="0" disallow="tram rail_urban rail rail_electric rail_fast ship container cable_car subway aircraft wheelchair scooter drone" speed="5.47" length="10.52" shape="729.47,571.99 732.04,569.56 732.58,567.90 731.10,567.01 727.59,566.88"/>
    </edge>
    <edge id=":10277765354_5" function="internal">
        <lane id=":10277765354_5_0" index="0" disallow="tram rail_urban rail rail_electric rail_fast ship container cable_car subway aircraft wheelchair scooter drone" speed="15.64" length="15.14" shape="729.47,571.99 732.27,569.31 734.95,566.39 737.83,564.00 741.22,562.90"/>
    </edge>
    <edge id=":10277765355_0" function="internal">
        <lane id=":10277765355_0_0" index="0" disallow="tram rail_urban rail rail_electric rail_fast ship container cable_car subway aircraft wheelchair scooter drone" speed="13.89" length="8.72" shape="652.12,558.88 643.78,556.35"/>
    </edge>
    <edge id=":10277765355_1" function="internal">
        <lane id=":10277765355_1_0" index="0" disallow="tram rail_urban rail rail_electric rail_fast ship container cable_car subway aircraft wheelchair scooter drone" speed="12.19" length="8.70" shape="652.11,554.94 649.67,555.86 647.94,556.57 646.22,556.82 643.78,556.35"/>
    </edge>
    <edge id=":10277765358_0" function="internal">
        <lane id=":10277765358_0_0" index="0" disallow="tram rail_urban rail rail_electric rail_fast ship container cable_car subway aircraft wheelchair scooter drone" speed="27.78" length="7.85" shape="668.69,531.29 672.40,538.21"/>
        <lane id=":10277765358_0_1" index="1" disallow="tram rail_urban rail rail_electric rail_fast ship container cable_car subway aircraft wheelchair scooter drone" speed="27.78" length="7.85" shape="665.87,532.81 669.58,539.72"/>
    </edge>
    <edge id=":10277765358_2" function="internal">
        <lane id=":10277765358_2_0" index="0" disallow="tram rail_urban rail rail_electric rail_fast ship container cable_car subway aircraft wheelchair scooter drone" speed="9.67" length="7.75" shape="665.87,532.81 666.68,534.84 666.69,536.39 666.20,538.01 665.51,540.22"/>
    </edge>
    <edge id=":10564628102_0" function="internal">
        <lane id=":10564628102_0_0" index="0" disallow="tram rail_urban rail rail_electric rail_fast ship container cable_car subway aircraft wheelchair scooter drone" speed="27.78" length="0.10" shape="938.95,554.73 938.95,554.73"/>
    </edge>
    <edge id=":10564628102_1" function="internal">
        <lane id=":10564628102_1_0" index="0" disallow="tram rail_urban rail rail_electric rail_fast ship container cable_car subway aircraft wheelchair scooter drone" speed="27.78" length="0.10" shape="938.77,551.53 938.77,551.53"/>
    </edge>
    <edge id=":10696286795_0" function="internal">
        <lane id=":10696286795_0_0" index="0" disallow="tram rail_urban rail rail_electric rail_fast ship container cable_car subway aircraft wheelchair scooter drone" speed="27.78" length="9.40" shape="647.22,491.30 651.67,499.58"/>
        <lane id=":10696286795_0_1" index="1" disallow="tram rail_urban rail rail_electric rail_fast ship container cable_car subway aircraft wheelchair scooter drone" speed="27.78" length="9.40" shape="644.40,492.81 648.85,501.10"/>
    </edge>
    <edge id=":10696286795_2" function="internal">
        <lane id=":10696286795_2_0" index="0" disallow="tram rail_urban rail rail_electric rail_fast ship container cable_car subway aircraft wheelchair scooter drone" speed="6.15" length="7.79" shape="644.40,492.81 645.53,495.32 645.94,497.34 645.65,498.86 644.64,499.88"/>
    </edge>
    <edge id=":10696286795_3" function="internal">
        <lane id=":10696286795_3_0" index="0" disallow="tram rail_urban rail rail_electric rail_fast ship container cable_car subway aircraft wheelchair scooter drone" speed="6.06" length="7.82" shape="643.06,497.10 644.47,496.75 645.90,497.30 647.36,498.75 648.85,501.10"/>
    </edge>
    <edge id=":10696286795_4" function="internal">
        <lane id=":10696286795_4_0" index="0" disallow="tram rail_urban rail rail_electric rail_fast ship container cable_car subway aircraft wheelchair scooter drone" speed="3.65" length="4.67" shape="643.06,497.10 644.49,497.20 645.24,497.70 645.28,498.59 644.64,499.88"/>
    </edge>
    <edge id=":10696286796_0" function="internal">
        <lane id=":10696286796_0_0" index="0" disallow="tram rail_urban rail rail_electric rail_fast ship container cable_car subway aircraft wheelchair scooter drone" speed="13.89" length="9.41" shape="606.86,524.81 602.72,516.36"/>
    </edge>
    <edge id=":10696286796_1" function="internal">
        <lane id=":10696286796_1_0" index="0" disallow="tram rail_urban rail rail_electric rail_fast ship container cable_car subway aircraft wheelchair scooter drone" speed="6.26" length="7.87" shape="606.86,524.81 605.84,522.28 605.51,520.23 605.87,518.69 606.92,517.65"/>
    </edge>
    <edge id=":10696286796_2" function="internal">
        <lane id=":10696286796_2_0" index="0" disallow="tram rail_urban rail rail_electric rail_fast ship container cable_car subway aircraft wheelchair scooter drone" speed="6.02" length="1.06" shape="608.51,520.42 607.48,520.69"/>
    </edge>
    <edge id=":10696286796_3" function="internal">
        <lane id=":10696286796_3_0" index="0" disallow="tram rail_urban rail rail_electric rail_fast ship container cable_car subway aircraft wheelchair scooter drone" speed="3.65" length="1.15" shape="608.51,520.42 607.36,520.34"/>
    </edge>
    <edge id=":10696286796_4" function="internal">
        <lane id=":10696286796_4_0" index="0" disallow="tram rail_urban rail rail_electric rail_fast ship container cable_car subway aircraft wheelchair scooter drone" speed="6.02" length="6.88" shape="607.48,520.69 607.04,520.80 605.58,520.26 604.14,518.77 602.72,516.36"/>
    </edge>
    <edge id=":10696286796_5" function="internal">
        <lane id=":10696286796_5_0" index="0" disallow="tram rail_urban rail rail_electric rail_fast ship container cable_car subway aircraft wheelchair scooter drone" speed="3.65" length="3.52" shape="607.36,520.34 607.07,520.32 606.33,519.83 606.27,518.94 606.92,517.65"/>
    </edge>
    <edge id=":11017348077_0" function="internal">
        <lane id=":11017348077_0_0" index="0" disallow="tram rail_urban rail rail_electric rail_fast ship container cable_car subway aircraft wheelchair scooter drone" speed="13.89" length="0.10" shape="1156.68,576.29 1156.68,576.29"/>
    </edge>
    <edge id=":11017348077_1" function="internal">
        <lane id=":11017348077_1_0" index="0" disallow="tram rail_urban rail rail_electric rail_fast ship container cable_car subway aircraft wheelchair scooter drone" speed="13.89" length="0.10" shape="1159.86,575.87 1159.86,575.87"/>
    </edge>
    <edge id=":11017348079_0" function="internal">
        <lane id=":11017348079_0_0" index="0" disallow="tram rail_urban rail rail_electric rail_fast ship container cable_car subway aircraft wheelchair scooter drone" speed="27.78" length="0.10" shape="1055.79,548.01 1055.79,548.01"/>
    </edge>
    <edge id=":11017348079_1" function="internal">
        <lane id=":11017348079_1_0" index="0" disallow="tram rail_urban rail rail_electric rail_fast ship container cable_car subway aircraft wheelchair scooter drone" speed="27.78" length="0.10" shape="1055.61,544.81 1055.61,544.81"/>
    </edge>
    <edge id=":11017350511_0" function="internal">
        <lane id=":11017350511_0_0" index="0" disallow="tram rail_urban rail rail_electric rail_fast ship container cable_car subway aircraft wheelchair scooter drone" speed="27.78" length="0.10" shape="982.27,552.23 982.27,552.23"/>
    </edge>
    <edge id=":11017350511_1" function="internal">
        <lane id=":11017350511_1_0" index="0" disallow="tram rail_urban rail rail_electric rail_fast ship container cable_car subway aircraft wheelchair scooter drone" speed="27.78" length="0.10" shape="982.09,549.03 982.09,549.03"/>
    </edge>
    <edge id=":11017434367_0" function="internal">
        <lane id=":11017434367_0_0" index="0" disallow="tram rail_urban rail rail_electric rail_fast ship container cable_car subway aircraft wheelchair scooter drone" speed="27.78" length="0.10" shape="745.81,434.38 745.81,434.38"/>
        <lane id=":11017434367_0_1" index="1" disallow="tram rail_urban rail rail_electric rail_fast ship container cable_car subway aircraft wheelchair scooter drone" speed="27.78" length="0.10" shape="742.93,432.98 742.93,432.98"/>
    </edge>
    <edge id=":11038486784_0" function="internal">
        <lane id=":11038486784_0_0" index="0" disallow="tram rail_urban rail rail_electric rail_fast ship container cable_car subway aircraft wheelchair scooter drone" speed="3.65" length="4.67" shape="962.48,814.55 961.04,814.42 960.31,813.91 960.28,813.01 960.96,811.74"/>
    </edge>
    <edge id=":11038495060_0" function="internal">
        <lane id=":11038495060_0_0" index="0" disallow="tram rail_urban rail rail_electric rail_fast ship container cable_car subway aircraft wheelchair scooter drone" speed="3.65" length="4.67" shape="905.86,1112.05 905.94,1110.61 906.43,1109.86 907.32,1109.80 908.62,1110.43"/>
    </edge>
    <edge id=":11068574087_0" function="internal">
        <lane id=":11068574087_0_0" index="0" disallow="tram rail_urban rail rail_electric rail_fast ship container cable_car subway aircraft wheelchair scooter drone" speed="27.78" length="0.30" shape="528.34,847.70 528.17,847.95"/>
        <lane id=":11068574087_0_1" index="1" disallow="tram rail_urban rail rail_electric rail_fast ship container cable_car subway aircraft wheelchair scooter drone" speed="27.78" length="0.30" shape="525.69,845.91 525.52,846.16"/>
    </edge>
    <edge id=":11068631628_0" function="internal">
        <lane id=":11068631628_0_0" index="0" disallow="tram rail_urban rail rail_electric rail_fast ship container cable_car subway aircraft wheelchair scooter drone" speed="27.78" length="0.10" shape="344.81,1009.12 344.81,1009.12"/>
        <lane id=":11068631628_0_1" index="1" disallow="tram rail_urban rail rail_electric rail_fast ship container cable_car subway aircraft wheelchair scooter drone" speed="27.78" length="0.10" shape="342.29,1007.14 342.29,1007.14"/>
    </edge>
    <edge id=":11068644176_0" function="internal">
        <lane id=":11068644176_0_0" index="0" disallow="tram rail_urban rail rail_electric rail_fast ship container cable_car subway aircraft wheelchair scooter drone" speed="27.78" length="0.10" shape="443.60,909.31 443.60,909.31"/>
        <lane id=":11068644176_0_1" index="1" disallow="tram rail_urban rail rail_electric rail_fast ship container cable_car subway aircraft wheelchair scooter drone" speed="27.78" length="0.10" shape="441.46,906.93 441.46,906.93"/>
    </edge>
    <edge id=":11068983322_0" function="internal">
        <lane id=":11068983322_0_0" index="0" disallow="tram rail_urban rail rail_electric rail_fast ship container cable_car subway aircraft wheelchair scooter drone" speed="13.89" length="0.10" shape="530.98,369.79 530.98,369.79"/>
    </edge>
    <edge id=":11193160118_0" function="internal">
        <lane id=":11193160118_0_0" index="0" disallow="tram rail_urban rail rail_electric rail_fast ship container cable_car subway aircraft wheelchair scooter drone" speed="13.89" length="0.10" shape="1214.62,1008.00 1214.62,1008.00"/>
    </edge>
    <edge id=":11193160118_1" function="internal">
        <lane id=":11193160118_1_0" index="0" disallow="tram rail_urban rail rail_electric rail_fast ship container cable_car subway aircraft wheelchair scooter drone" speed="3.65" length="2.34" shape="1214.62,1008.00 1215.26,1006.71 1216.00,1006.20"/>
    </edge>
    <edge id=":11193160118_4" function="internal">
        <lane id=":11193160118_4_0" index="0" disallow="tram rail_urban rail rail_electric rail_fast ship container cable_car subway aircraft wheelchair scooter drone" speed="3.65" length="2.34" shape="1216.00,1006.20 1216.84,1006.49 1217.80,1007.58"/>
    </edge>
    <edge id=":11193160118_2" function="internal">
        <lane id=":11193160118_2_0" index="0" disallow="tram rail_urban rail rail_electric rail_fast ship container cable_car subway aircraft wheelchair scooter drone" speed="13.89" length="0.10" shape="1217.80,1007.58 1217.80,1007.58"/>
    </edge>
    <edge id=":11193160118_3" function="internal">
        <lane id=":11193160118_3_0" index="0" disallow="tram rail_urban rail rail_electric rail_fast ship container cable_car subway aircraft wheelchair scooter drone" speed="3.65" length="2.34" shape="1217.80,1007.58 1217.16,1008.87 1216.42,1009.38"/>
    </edge>
    <edge id=":11193160118_5" function="internal">
        <lane id=":11193160118_5_0" index="0" disallow="tram rail_urban rail rail_electric rail_fast ship container cable_car subway aircraft wheelchair scooter drone" speed="3.65" length="2.34" shape="1216.42,1009.38 1215.58,1009.09 1214.62,1008.00"/>
    </edge>
    <edge id=":11217108164_0" function="internal">
        <lane id=":11217108164_0_0" index="0" allow="pedestrian bicycle" speed="2.89" length="2.92" width="2.00" shape="943.87,844.41 944.77,844.42 945.25,844.71 945.31,845.26 944.95,846.09"/>
    </edge>
    <edge id=":1147756768_0" function="internal">
        <lane id=":1147756768_0_0" index="0" disallow="tram rail_urban rail rail_electric rail_fast ship container cable_car subway aircraft wheelchair scooter drone" speed="27.78" length="0.30" shape="1030.54,1213.36 1030.68,1213.62"/>
    </edge>
    <edge id=":1147756769_0" function="internal">