<?xml version="1.0" encoding="UTF-8"?>

<!-- generated on 2024-11-11 23:43:12 by Eclipse SUMO netedit Version 1.21.0
<neteditConfiguration xmlns:xsi="http://www.w3.org/2001/XMLSchema-instance" xsi:noNamespaceSchemaLocation="http://sumo.dlr.de/xsd/neteditConfiguration.xsd">

    <input>
        <sumo-net-file value="D:\FYP\VJTI Network\VJTI.net.xml"/>
    </input>

    <output>
        <output-file value="D:\FYP\VJTI Network\VJTI.net.xml"/>
    </output>

    <processing>
        <geometry.min-radius.fix.railways value="false"/>
        <geometry.max-grade.fix value="false"/>
        <offset.disable-normalization value="true"/>
        <lefthand value="0"/>
    </processing>

    <junctions>
        <no-turnarounds value="true"/>
        <junctions.corner-detail value="5"/>
        <junctions.limit-turn-speed value="5.50"/>
        <rectangular-lane-cut value="0"/>
    </junctions>

    <pedestrian>
        <walkingareas value="0"/>
    </pedestrian>

</neteditConfiguration>
-->

<net version="1.20" junctionCornerDetail="5" limitTurnSpeed="5.50" xmlns:xsi="http://www.w3.org/2001/XMLSchema-instance" xsi:noNamespaceSchemaLocation="http://sumo.dlr.de/xsd/net_file.xsd">

    <location netOffset="-273606.00,-2103921.58" convBoundary="0.00,0.00,1228.62,1676.25" origBoundary="72.827831,18.982265,72.874047,19.038824" projParameter="+proj=utm +zone=43 +ellps=WGS84 +datum=WGS84 +units=m +no_defs"/>

    <type id="highway.footway" priority="1" numLanes="1" speed="2.78" allow="pedestrian" oneway="1" width="2.00"/>
    <type id="highway.primary" priority="12" numLanes="2" speed="27.78" disallow="tram rail_urban rail rail_electric rail_fast ship container cable_car subway aircraft wheelchair scooter drone" oneway="0"/>
    <type id="highway.residential" priority="3" numLanes="1" speed="13.89" disallow="tram rail_urban rail rail_electric rail_fast ship container cable_car subway aircraft wheelchair scooter drone" oneway="0"/>
    <type id="highway.secondary" priority="11" numLanes="1" speed="27.78" disallow="tram rail_urban rail rail_electric rail_fast ship container cable_car subway aircraft wheelchair scooter drone" oneway="0"/>
    <type id="highway.service" priority="1" numLanes="1" speed="5.56" allow="pedestrian delivery bicycle" oneway="0"/>
    <type id="highway.tertiary" priority="10" numLanes="1" speed="22.22" disallow="tram rail_urban rail rail_electric rail_fast ship container cable_car subway aircraft wheelchair scooter drone" oneway="0"/>
    <type id="highway.trunk" priority="13" numLanes="2" speed="27.78" disallow="pedestrian bicycle tram rail_urban rail rail_electric rail_fast ship container cable_car subway aircraft wheelchair scooter drone" oneway="0"/>

    <edge id=":11029957493_0" function="internal">
        <lane id=":11029957493_0_0" index="0" disallow="pedestrian bicycle tram rail_urban rail rail_electric rail_fast ship container cable_car subway aircraft wheelchair scooter drone" speed="27.78" length="9.43" shape="320.86,907.10 326.91,914.34"/>
        <lane id=":11029957493_0_1" index="1" disallow="pedestrian bicycle tram rail_urban rail rail_electric rail_fast ship container cable_car subway aircraft wheelchair scooter drone" speed="27.78" length="9.43" shape="318.40,909.15 324.45,916.39"/>
        <lane id=":11029957493_0_2" index="2" disallow="pedestrian bicycle tram rail_urban rail rail_electric rail_fast ship container cable_car subway aircraft wheelchair scooter drone" speed="27.78" length="9.43" shape="315.95,911.20 321.99,918.44"/>
    </edge>
    <edge id=":11029957493_3" function="internal">
        <lane id=":11029957493_3_0" index="0" disallow="pedestrian bicycle tram rail_urban rail rail_electric rail_fast ship container cable_car subway aircraft wheelchair scooter drone" speed="5.99" length="8.03" shape="315.95,911.20 317.58,913.50 318.33,915.43 318.19,916.99 317.16,918.19"/>
    </edge>
    <edge id=":11029957493_4" function="internal">
        <lane id=":11029957493_4_0" index="0" disallow="pedestrian bicycle tram rail_urban rail rail_electric rail_fast ship container cable_car subway aircraft wheelchair scooter drone" speed="7.12" length="10.21" shape="315.35,915.55 317.92,914.23 320.29,913.93 322.47,914.65 324.45,916.39"/>
        <lane id=":11029957493_4_1" index="1" disallow="pedestrian bicycle tram rail_urban rail rail_electric rail_fast ship container cable_car subway aircraft wheelchair scooter drone" speed="6.35" length="7.93" shape="315.35,915.55 316.77,915.04 318.36,915.35 320.09,916.48 321.99,918.44"/>
    </edge>
    <edge id=":11029957493_6" function="internal">
        <lane id=":11029957493_6_0" index="0" disallow="tram rail_urban rail rail_electric rail_fast ship container cable_car subway aircraft wheelchair scooter drone" speed="3.65" length="4.67" shape="315.35,915.55 316.79,915.53 317.57,915.96 317.70,916.85 317.16,918.19"/>
    </edge>
    <edge id=":11029957494_0" function="internal">
        <lane id=":11029957494_0_0" index="0" disallow="tram rail_urban rail rail_electric rail_fast ship container cable_car subway aircraft wheelchair scooter drone" speed="3.65" length="4.67" shape="282.86,941.70 281.42,941.72 280.64,941.28 280.52,940.40 281.06,939.06"/>
    </edge>
    <edge id=":11043519234_0" function="internal">
        <lane id=":11043519234_0_0" index="0" disallow="tram rail_urban rail rail_electric rail_fast ship container cable_car subway aircraft wheelchair scooter drone" speed="3.65" length="4.67" shape="154.65,814.68 153.20,814.73 152.41,814.32 152.27,813.43 152.77,812.08"/>
    </edge>
    <edge id=":11071026999_0" function="internal">
        <lane id=":11071026999_0_0" index="0" allow="pedestrian delivery bicycle" speed="3.65" length="4.67" shape="321.80,812.82 323.24,812.73 324.04,813.12 324.21,814.00 323.74,815.36"/>
    </edge>
    <edge id=":11072742594_0" function="internal">
        <lane id=":11072742594_0_0" index="0" allow="pedestrian delivery bicycle" speed="3.65" length="4.67" shape="343.97,835.29 345.40,835.17 346.21,835.55 346.40,836.42 345.95,837.79"/>
    </edge>
    <edge id=":11155263421_0" function="internal">
        <lane id=":11155263421_0_0" index="0" allow="pedestrian delivery bicycle" speed="3.65" length="4.67" shape="326.95,992.52 326.70,991.10 327.01,990.26 327.87,990.00 329.27,990.32"/>
    </edge>
    <edge id=":11235667113_0" function="internal">
        <lane id=":11235667113_0_0" index="0" allow="pedestrian delivery bicycle" speed="5.50" length="5.14" shape="595.46,1009.22 594.30,1008.66 593.14,1008.58 591.97,1008.97 590.80,1009.84"/>
    </edge>
    <edge id=":11235667113_1" function="internal">
        <lane id=":11235667113_1_0" index="0" disallow="tram rail_urban rail rail_electric rail_fast ship container cable_car subway aircraft wheelchair scooter drone" speed="8.33" length="8.98" shape="595.46,1009.22 593.29,1007.69 591.89,1006.52 590.65,1005.17 588.98,1003.10"/>
    </edge>
    <edge id=":11235667113_2" function="internal">
        <lane id=":11235667113_2_0" index="0" disallow="tram rail_urban rail rail_electric rail_fast ship container cable_car subway aircraft wheelchair scooter drone" speed="8.33" length="8.04" shape="591.47,1001.10 592.97,1002.95 594.08,1004.16 595.33,1005.21 597.28,1006.58"/>
    </edge>
    <edge id=":11235667113_3" function="internal">
        <lane id=":11235667113_3_0" index="0" allow="pedestrian delivery bicycle" speed="6.95" length="3.13" shape="591.47,1001.10 592.82,1003.38 592.89,1003.85"/>
    </edge>
    <edge id=":11235667113_7" function="internal">
        <lane id=":11235667113_7_0" index="0" allow="pedestrian delivery bicycle" speed="6.95" length="6.70" shape="592.89,1003.85 593.16,1005.59 592.48,1007.74 590.80,1009.84"/>
    </edge>
    <edge id=":11235667113_4" function="internal">
        <lane id=":11235667113_4_0" index="0" allow="pedestrian delivery bicycle" speed="5.14" length="4.92" shape="588.64,1007.47 589.49,1006.43 589.82,1005.35 589.65,1004.24 588.98,1003.10"/>
    </edge>
    <edge id=":11235667113_5" function="internal">
        <lane id=":11235667113_5_0" index="0" allow="pedestrian delivery bicycle" speed="6.95" length="9.50" shape="588.64,1007.47 590.75,1005.94 592.90,1005.28 595.07,1005.49 597.28,1006.58"/>
    </edge>
    <edge id=":11235667113_6" function="internal">
        <lane id=":11235667113_6_0" index="0" allow="pedestrian delivery bicycle" speed="3.65" length="4.67" shape="588.64,1007.47 590.07,1007.25 590.90,1007.57 591.15,1008.44 590.80,1009.84"/>
    </edge>
    <edge id=":11273644268_0" function="internal">
        <lane id=":11273644268_0_0" index="0" allow="pedestrian delivery bicycle" speed="3.65" length="4.67" shape="283.68,760.08 285.12,760.02 285.91,760.43 286.06,761.31 285.56,762.66"/>
    </edge>
    <edge id=":11273683154_0" function="internal">
        <lane id=":11273683154_0_0" index="0" allow="pedestrian delivery bicycle" speed="3.65" length="4.67" shape="552.11,1034.63 552.46,1036.02 552.21,1036.89 551.38,1037.21 549.95,1036.99"/>
    </edge>
    <edge id=":11273683155_0" function="internal">
        <lane id=":11273683155_0_0" index="0" allow="pedestrian delivery bicycle" speed="3.65" length="4.67" shape="560.04,1038.80 558.61,1039.05 557.78,1038.74 557.52,1037.88 557.84,1036.48"/>
    </edge>
    <edge id=":1165504242_0" function="internal">
        <lane id=":1165504242_0_0" index="0" disallow="pedestrian bicycle tram rail_urban rail rail_electric rail_fast ship container cable_car subway aircraft wheelchair scooter drone" speed="27.78" length="9.27" shape="424.83,983.32 418.43,976.75"/>
        <lane id=":1165504242_0_1" index="1" disallow="pedestrian bicycle tram rail_urban rail rail_electric rail_fast ship container cable_car subway aircraft wheelchair scooter drone" speed="27.78" length="9.27" shape="427.16,981.12 420.69,974.49"/>
        <lane id=":1165504242_0_2" index="2" disallow="pedestrian bicycle tram rail_urban rail rail_electric rail_fast ship container cable_car subway aircraft wheelchair scooter drone" speed="27.78" length="9.27" shape="429.48,978.92 422.95,972.22"/>
    </edge>
    <edge id=":1165504242_3" function="internal">
        <lane id=":1165504242_3_0" index="0" disallow="pedestrian bicycle tram rail_urban rail rail_electric rail_fast ship container cable_car subway aircraft wheelchair scooter drone" speed="6.08" length="7.76" shape="429.48,978.92 427.72,976.79 426.79,974.96 426.68,973.43 427.40,972.22"/>
    </edge>
    <edge id=":1165504242_4" function="internal">
        <lane id=":1165504242_4_0" index="0" disallow="pedestrian bicycle tram rail_urban rail rail_electric rail_fast ship container cable_car subway aircraft wheelchair scooter drone" speed="6.91" length="10.09" shape="429.60,974.54 427.34,976.15 425.10,976.68 422.88,976.12 420.69,974.49"/>
        <lane id=":1165504242_4_1" index="1" disallow="pedestrian bicycle tram rail_urban rail rail_electric rail_fast ship container cable_car subway aircraft wheelchair scooter drone" speed="6.14" length="7.74" shape="429.60,974.54 428.35,975.18 426.83,975.01 425.03,974.02 422.95,972.22"/>
    </edge>
    <edge id=":1165504242_6" function="internal">
        <lane id=":1165504242_6_0" index="0" disallow="tram rail_urban rail rail_electric rail_fast ship container cable_car subway aircraft wheelchair scooter drone" speed="3.65" length="4.67" shape="429.60,974.54 428.17,974.78 427.33,974.48 427.08,973.62 427.40,972.22"/>
    </edge>
    <edge id=":1179090909_0" function="internal">
        <lane id=":1179090909_0_0" index="0" disallow="pedestrian bicycle tram rail_urban rail rail_electric rail_fast ship container cable_car subway aircraft wheelchair scooter drone" speed="27.78" length="9.49" shape="358.29,909.57 352.00,902.39"/>
        <lane id=":1179090909_0_1" index="1" disallow="pedestrian bicycle tram rail_urban rail rail_electric rail_fast ship container cable_car subway aircraft wheelchair scooter drone" speed="27.78" length="9.49" shape="360.68,907.44 354.42,900.30"/>
        <lane id=":1179090909_0_2" index="2" disallow="pedestrian bicycle tram rail_urban rail rail_electric rail_fast ship container cable_car subway aircraft wheelchair scooter drone" speed="27.78" length="9.49" shape="363.07,905.31 356.85,898.21"/>
    </edge>
    <edge id=":1179090909_3" function="internal">
        <lane id=":1179090909_3_0" index="0" disallow="pedestrian bicycle tram rail_urban rail rail_electric rail_fast ship container cable_car subway aircraft wheelchair scooter drone" speed="6.22" length="7.87" shape="363.07,905.31 361.39,903.13 360.53,901.25 360.48,899.68 361.23,898.40"/>
    </edge>
    <edge id=":1179090909_4" function="internal">
        <lane id=":1179090909_4_0" index="0" disallow="pedestrian bicycle tram rail_urban rail rail_electric rail_fast ship container cable_car subway aircraft wheelchair scooter drone" speed="6.81" length="10.47" shape="363.46,900.69 361.13,902.39 358.84,902.90 356.60,902.20 354.42,900.30"/>
        <lane id=":1179090909_4_1" index="1" disallow="pedestrian bicycle tram rail_urban rail rail_electric rail_fast ship container cable_car subway aircraft wheelchair scooter drone" speed="6.02" length="7.93" shape="363.46,900.69 362.14,901.42 360.59,901.26 358.83,900.18 356.85,898.21"/>
    </edge>
    <edge id=":1179090909_6" function="internal">
        <lane id=":1179090909_6_0" index="0" disallow="tram rail_urban rail rail_electric rail_fast ship container cable_car subway aircraft wheelchair scooter drone" speed="3.65" length="4.67" shape="363.46,900.69 362.05,900.95 361.20,900.66 360.93,899.81 361.23,898.40"/>
    </edge>
    <edge id=":12069873596_0" function="internal">
        <lane id=":12069873596_0_0" index="0" disallow="tram rail_urban rail rail_electric rail_fast ship container cable_car subway aircraft wheelchair scooter drone" speed="6.31" length="9.00" shape="412.67,578.12 410.94,579.89 410.26,581.76 410.63,583.74 412.06,585.83"/>
    </edge>
    <edge id=":12069873596_1" function="internal">
        <lane id=":12069873596_1_0" index="0" disallow="tram rail_urban rail rail_electric rail_fast ship container cable_car subway aircraft wheelchair scooter drone" speed="22.22" length="11.83" shape="412.67,578.12 403.01,584.96"/>
    </edge>
    <edge id=":12069873596_2" function="internal">
        <lane id=":12069873596_2_0" index="0" disallow="tram rail_urban rail rail_electric rail_fast ship container cable_car subway aircraft wheelchair scooter drone" speed="3.65" length="1.44" shape="412.67,578.12 411.23,578.21"/>
    </edge>
    <edge id=":12069873596_9" function="internal">
        <lane id=":12069873596_9_0" index="0" disallow="tram rail_urban rail rail_electric rail_fast ship container cable_car subway aircraft wheelchair scooter drone" speed="3.65" length="3.23" shape="411.23,578.21 410.42,577.82 410.26,576.94 410.72,575.58"/>
    </edge>
    <edge id=":12069873596_3" function="internal">
        <lane id=":12069873596_3_0" index="0" disallow="tram rail_urban rail rail_electric rail_fast ship container cable_car subway aircraft wheelchair scooter drone" speed="6.54" length="9.30" shape="402.67,574.58 404.43,576.36 406.35,577.13 408.45,576.86 410.72,575.58"/>
    </edge>
    <edge id=":12069873596_4" function="internal">
        <lane id=":12069873596_4_0" index="0" disallow="tram rail_urban rail rail_electric rail_fast ship container cable_car subway aircraft wheelchair scooter drone" speed="13.89" length="14.66" shape="402.67,574.58 404.90,577.52 407.20,580.33 409.58,583.08 412.06,585.83"/>
    </edge>
    <edge id=":12069873596_5" function="internal">
        <lane id=":12069873596_5_0" index="0" disallow="tram rail_urban rail rail_electric rail_fast ship container cable_car subway aircraft wheelchair scooter drone" speed="7.23" length="11.81" shape="402.67,574.58 404.65,577.92 405.37,580.77 404.82,583.11 403.01,584.96"/>
    </edge>
    <edge id=":12069873596_6" function="internal">
        <lane id=":12069873596_6_0" index="0" disallow="tram rail_urban rail rail_electric rail_fast ship container cable_car subway aircraft wheelchair scooter drone" speed="22.22" length="11.60" shape="401.26,582.28 410.72,575.58"/>
    </edge>
    <edge id=":12069873596_7" function="internal">
        <lane id=":12069873596_7_0" index="0" disallow="tram rail_urban rail rail_electric rail_fast ship container cable_car subway aircraft wheelchair scooter drone" speed="7.99" length="2.63" shape="401.26,582.28 403.71,581.34"/>
    </edge>
    <edge id=":12069873596_8" function="internal">
        <lane id=":12069873596_8_0" index="0" disallow="tram rail_urban rail rail_electric rail_fast ship container cable_car subway aircraft wheelchair scooter drone" speed="3.65" length="1.44" shape="401.26,582.28 402.70,582.30"/>
    </edge>
    <edge id=":12069873596_10" function="internal">
        <lane id=":12069873596_10_0" index="0" disallow="tram rail_urban rail rail_electric rail_fast ship container cable_car subway aircraft wheelchair scooter drone" speed="7.99" length="9.79" shape="403.71,581.34 406.33,581.62 409.11,583.11 412.06,585.83"/>
    </edge>
    <edge id=":12069873596_11" function="internal">
        <lane id=":12069873596_11_0" index="0" disallow="tram rail_urban rail rail_electric rail_fast ship container cable_car subway aircraft wheelchair scooter drone" speed="3.65" length="3.23" shape="402.70,582.30 403.47,582.75 403.58,583.64 403.01,584.96"/>
    </edge>
    <edge id=":12127441647_0" function="internal">
        <lane id=":12127441647_0_0" index="0" disallow="tram rail_urban rail rail_electric rail_fast ship container cable_car subway aircraft wheelchair scooter drone" speed="3.65" length="4.67" shape="56.26,528.62 54.82,528.68 54.03,528.27 53.88,527.39 54.38,526.04"/>
    </edge>
    <edge id=":1280220822_0" function="internal">
        <lane id=":1280220822_0_0" index="0" disallow="tram rail_urban rail rail_electric rail_fast ship container cable_car subway aircraft wheelchair scooter drone" speed="13.89" length="11.28" shape="518.76,621.61 516.25,610.61"/>
    </edge>
    <edge id=":1280220822_1" function="internal">
        <lane id=":1280220822_1_0" index="0" disallow="tram rail_urban rail rail_electric rail_fast ship container cable_car subway aircraft wheelchair scooter drone" speed="7.63" length="2.40" shape="518.76,621.61 518.79,619.21"/>
    </edge>
    <edge id=":1280220822_2" function="internal">
        <lane id=":1280220822_2_0" index="0" disallow="tram rail_urban rail rail_electric rail_fast ship container cable_car subway aircraft wheelchair scooter drone" speed="3.65" length="1.44" shape="518.76,621.61 519.28,620.26"/>
    </edge>
    <edge id=":1280220822_9" function="internal">
        <lane id=":1280220822_9_0" index="0" disallow="tram rail_urban rail rail_electric rail_fast ship container cable_car subway aircraft wheelchair scooter drone" speed="7.63" length="9.48" shape="518.79,619.21 520.02,617.09 522.47,615.25 526.12,613.70"/>
    </edge>
    <edge id=":1280220822_10" function="internal">
        <lane id=":1280220822_10_0" index="0" disallow="tram rail_urban rail rail_electric rail_fast ship container cable_car subway aircraft wheelchair scooter drone" speed="3.65" length="3.23" shape="519.28,620.26 519.97,619.69 520.84,619.90 521.88,620.90"/>
    </edge>
    <edge id=":1280220822_3" function="internal">
        <lane id=":1280220822_3_0" index="0" disallow="tram rail_urban rail rail_electric rail_fast ship container cable_car subway aircraft wheelchair scooter drone" speed="6.31" length="9.04" shape="519.37,609.90 520.27,612.24 521.70,613.66 523.65,614.14 526.12,613.70"/>
    </edge>
    <edge id=":1280220822_4" function="internal">
        <lane id=":1280220822_4_0" index="0" disallow="tram rail_urban rail rail_electric rail_fast ship container cable_car subway aircraft wheelchair scooter drone" speed="13.89" length="11.28" shape="519.37,609.90 521.88,620.90"/>
    </edge>
    <edge id=":1280220822_5" function="internal">
        <lane id=":1280220822_5_0" index="0" disallow="tram rail_urban rail rail_electric rail_fast ship container cable_car subway aircraft wheelchair scooter drone" speed="3.65" length="1.44" shape="519.37,609.90 518.86,611.25"/>
    </edge>
    <edge id=":1280220822_11" function="internal">
        <lane id=":1280220822_11_0" index="0" disallow="tram rail_urban rail rail_electric rail_fast ship container cable_car subway aircraft wheelchair scooter drone" speed="3.65" length="3.23" shape="518.86,611.25 518.17,611.82 517.30,611.60 516.25,610.61"/>
    </edge>
    <edge id=":1280220822_6" function="internal">
        <lane id=":1280220822_6_0" index="0" disallow="tram rail_urban rail rail_electric rail_fast ship container cable_car subway aircraft wheelchair scooter drone" speed="6.37" length="9.09" shape="511.88,617.11 514.28,616.39 515.80,615.06 516.46,613.14 516.25,610.61"/>
    </edge>
    <edge id=":1280220822_7" function="internal">
        <lane id=":1280220822_7_0" index="0" disallow="tram rail_urban rail rail_electric rail_fast ship container cable_car subway aircraft wheelchair scooter drone" speed="13.89" length="14.66" shape="511.88,617.11 515.53,616.49 519.08,615.72 522.59,614.79 526.12,613.70"/>
    </edge>
    <edge id=":1280220822_8" function="internal">
        <lane id=":1280220822_8_0" index="0" disallow="tram rail_urban rail rail_electric rail_fast ship container cable_car subway aircraft wheelchair scooter drone" speed="7.55" length="11.81" shape="511.88,617.11 515.82,616.85 518.80,617.39 520.82,618.74 521.88,620.90"/>
    </edge>
    <edge id=":1307553678_0" function="internal">
        <lane id=":1307553678_0_0" index="0" disallow="tram rail_urban rail rail_electric rail_fast ship container cable_car subway aircraft wheelchair scooter drone" speed="13.89" length="16.44" shape="603.15,506.17 602.87,502.20 602.47,497.97 601.92,493.77 601.20,489.86"/>
    </edge>
    <edge id=":1307553678_1" function="internal">
        <lane id=":1307553678_1_0" index="0" disallow="tram rail_urban rail rail_electric rail_fast ship container cable_car subway aircraft wheelchair scooter drone" speed="6.25" length="14.73" shape="603.15,506.17 603.25,500.94 604.33,498.68 606.40,499.39 609.47,503.09"/>
    </edge>
    <edge id=":1307553678_2" function="internal">
        <lane id=":1307553678_2_0" index="0" disallow="tram rail_urban rail rail_electric rail_fast ship container cable_car subway aircraft wheelchair scooter drone" speed="13.89" length="16.14" shape="606.83,504.90 604.91,501.50 603.36,497.66 602.14,493.69 601.20,489.86"/>
    </edge>
    <edge id=":1307553678_3" function="internal">
        <lane id=":1307553678_3_0" index="0" disallow="tram rail_urban rail rail_electric rail_fast ship container cable_car subway aircraft wheelchair scooter drone" speed="3.65" length="1.44" shape="606.83,504.90 606.81,503.46"/>
    </edge>
    <edge id=":1307553678_4" function="internal">
        <lane id=":1307553678_4_0" index="0" disallow="tram rail_urban rail rail_electric rail_fast ship container cable_car subway aircraft wheelchair scooter drone" speed="3.65" length="3.23" shape="606.81,503.46 607.24,502.67 608.13,502.55 609.47,503.09"/>
    </edge>
    <edge id=":1333240948_0" function="internal">
        <lane id=":1333240948_0_0" index="0" disallow="tram rail_urban rail rail_electric rail_fast ship container cable_car subway aircraft wheelchair scooter drone" speed="22.22" length="9.54" shape="765.21,485.90 763.62,476.49"/>
    </edge>
    <edge id=":1333240948_1" function="internal">
        <lane id=":1333240948_1_0" index="0" disallow="tram rail_urban rail rail_electric rail_fast ship container cable_car subway aircraft wheelchair scooter drone" speed="6.27" length="8.01" shape="765.21,485.90 764.86,483.18 765.08,481.11 765.88,479.70 767.25,478.95"/>
    </edge>
    <edge id=":1333240948_2" function="internal">
        <lane id=":1333240948_2_0" index="0" disallow="tram rail_urban rail rail_electric rail_fast ship container cable_car subway aircraft wheelchair scooter drone" speed="5.97" length="8.11" shape="768.05,482.04 766.43,482.04 765.15,481.12 764.21,479.27 763.62,476.49"/>
    </edge>
    <edge id=":1333240948_3" function="internal">
        <lane id=":1333240948_3_0" index="0" disallow="tram rail_urban rail rail_electric rail_fast ship container cable_car subway aircraft wheelchair scooter drone" speed="3.65" length="4.67" shape="768.05,482.04 766.69,481.57 766.10,480.89 766.29,480.02 767.25,478.95"/>
    </edge>
    <edge id=":1340012681_0" function="internal">
        <lane id=":1340012681_0_0" index="0" allow="pedestrian delivery bicycle" speed="3.65" length="4.67" shape="332.28,980.95 330.86,981.16 330.02,980.83 329.78,979.97 330.14,978.57"/>
    </edge>
    <edge id=":1650753925_0" function="internal">
        <lane id=":1650753925_0_0" index="0" disallow="tram rail_urban rail rail_electric rail_fast ship container cable_car subway aircraft wheelchair scooter drone" speed="10.74" length="9.36" shape="289.37,636.93 286.66,637.45 284.83,638.11 283.30,639.28 281.51,641.35"/>
    </edge>
    <edge id=":1650753925_1" function="internal">
        <lane id=":1650753925_1_0" index="0" disallow="tram rail_urban rail rail_electric rail_fast ship container cable_car subway aircraft wheelchair scooter drone" speed="7.27" length="7.46" shape="289.37,636.93 286.50,637.35 284.33,637.47 282.85,637.31 282.07,636.86"/>
    </edge>
    <edge id=":1650753925_2" function="internal">
        <lane id=":1650753925_2_0" index="0" disallow="tram rail_urban rail rail_electric rail_fast ship container cable_car subway aircraft wheelchair scooter drone" speed="6.56" length="7.35" shape="284.65,634.97 284.81,635.84 284.33,637.20 283.24,639.03 281.51,641.35"/>
    </edge>
    <edge id=":1650753935_0" function="internal">
        <lane id=":1650753935_0_0" index="0" disallow="tram rail_urban rail rail_electric rail_fast ship container cable_car subway aircraft wheelchair scooter drone" speed="22.22" length="8.93" shape="312.74,647.61 311.46,645.30 310.46,643.78 309.24,642.42 307.32,640.60"/>
    </edge>
    <edge id=":1650753935_1" function="internal">
        <lane id=":1650753935_1_0" index="0" disallow="tram rail_urban rail rail_electric rail_fast ship container cable_car subway aircraft wheelchair scooter drone" speed="6.18" length="7.53" shape="312.74,647.61 311.59,645.14 311.09,643.17 311.24,641.68 312.05,640.69"/>
    </edge>
    <edge id=":1650753935_2" function="internal">
        <lane id=":1650753935_2_0" index="0" disallow="tram rail_urban rail rail_electric rail_fast ship container cable_car subway aircraft wheelchair scooter drone" speed="6.55" length="0.85" shape="313.81,643.37 312.99,643.60"/>
    </edge>
    <edge id=":1650753935_3" function="internal">
        <lane id=":1650753935_3_0" index="0" disallow="tram rail_urban rail rail_electric rail_fast ship container cable_car subway aircraft wheelchair scooter drone" speed="6.55" length="6.62" shape="312.99,643.60 312.63,643.70 311.16,643.35 309.39,642.31 307.32,640.60"/>
    </edge>
    <edge id=":1650753960_0" function="internal">
        <lane id=":1650753960_0_0" index="0" disallow="tram rail_urban rail rail_electric rail_fast ship container cable_car subway aircraft wheelchair scooter drone" speed="10.00" length="9.27" shape="277.85,664.40 279.00,666.88 280.35,668.87 281.87,670.37 283.59,671.39"/>
    </edge>
    <edge id=":1650753960_1" function="internal">
        <lane id=":1650753960_1_0" index="0" disallow="tram rail_urban rail rail_electric rail_fast ship container cable_car subway aircraft wheelchair scooter drone" speed="6.64" length="7.57" shape="277.85,664.40 278.80,667.14 279.26,669.26 279.24,670.76 278.73,671.62"/>
    </edge>
    <edge id=":1650753960_2" function="internal">
        <lane id=":1650753960_2_0" index="0" disallow="tram rail_urban rail rail_electric rail_fast ship container cable_car subway aircraft wheelchair scooter drone" speed="7.46" length="0.51" shape="276.83,669.04 277.34,669.07"/>
    </edge>
    <edge id=":1650753960_3" function="internal">
        <lane id=":1650753960_3_0" index="0" disallow="tram rail_urban rail rail_electric rail_fast ship container cable_car subway aircraft wheelchair scooter drone" speed="7.46" length="6.71" shape="277.34,669.07 278.10,669.11 280.17,669.85 282.26,670.77 283.59,671.39"/>
    </edge>
    <edge id=":1650753961_0" function="internal">
        <lane id=":1650753961_0_0" index="0" disallow="tram rail_urban rail rail_electric rail_fast ship container cable_car subway aircraft wheelchair scooter drone" speed="6.76" length="7.60" shape="310.60,671.79 310.07,670.64 310.15,669.08 310.83,667.12 312.12,664.76"/>
    </edge>
    <edge id=":1650753961_1" function="internal">
        <lane id=":1650753961_1_0" index="0" disallow="tram rail_urban rail rail_electric rail_fast ship container cable_car subway aircraft wheelchair scooter drone" speed="22.22" length="8.97" shape="306.23,671.44 308.27,669.73 309.58,668.45 310.69,667.00 312.12,664.76"/>
    </edge>
    <edge id=":1650753961_2" function="internal">
        <lane id=":1650753961_2_0" index="0" disallow="tram rail_urban rail rail_electric rail_fast ship container cable_car subway aircraft wheelchair scooter drone" speed="6.11" length="7.69" shape="306.23,671.44 308.46,669.83 310.34,669.00 311.85,668.96 313.01,669.69"/>
    </edge>
    <edge id=":1650753970_0" function="internal">
        <lane id=":1650753970_0_0" index="0" disallow="pedestrian bicycle tram rail_urban rail rail_electric rail_fast ship container cable_car subway aircraft wheelchair scooter drone" speed="6.55" length="9.12" shape="212.69,727.18 210.93,725.41 209.02,724.61 206.97,724.80 204.78,725.97"/>
    </edge>
    <edge id=":1650753970_1" function="internal">
        <lane id=":1650753970_1_0" index="0" disallow="pedestrian bicycle tram rail_urban rail rail_electric rail_fast ship container cable_car subway aircraft wheelchair scooter drone" speed="27.78" length="14.44" shape="212.69,727.18 204.07,715.57"/>